Mol_1
  PyMOL2.5          3D                             0

 42 47  0  0  0  0  0  0  0  0999 V2000
   -8.6385    1.6855  -24.3448 N   0  0  0  0  0  0  0  0  0  0  0  0
   -8.1913    0.3267  -24.6643 C   0  0  0  0  0  0  0  0  0  0  0  0
   -8.6044   -0.5749  -23.5250 C   0  0  0  0  0  0  0  0  0  0  0  0
   -8.1480    0.1262  -22.2643 C   0  0  0  0  0  0  0  0  0  0  0  0
   -8.3206    1.3446  -21.9679 O   0  0  0  0  0  0  0  0  0  0  0  0
   -7.4735   -0.7736  -21.4090 N   0  0  0  0  0  0  0  0  0  0  0  0
   -7.7333   -2.0842  -21.9242 C   0  0  0  0  0  0  0  0  0  0  0  0
   -7.9745   -1.8867  -23.4302 C   0  0  0  0  0  0  0  0  0  0  0  0
  -10.0904   -0.5588  -23.4195 C   0  0  0  0  0  0  0  0  0  0  0  0
  -10.8481   -1.6300  -23.0390 C   0  0  0  0  0  0  0  0  0  0  0  0
  -12.2189   -1.5298  -22.9169 C   0  0  0  0  0  0  0  0  0  0  0  0
  -13.1839   -2.9071  -22.4284 Cl  0  0  0  0  0  0  0  0  0  0  0  0
  -12.8944   -0.3413  -23.1734 C   0  0  0  0  0  0  0  0  0  0  0  0
  -12.1292    0.7404  -23.5591 C   0  0  0  0  0  0  0  0  0  0  0  0
  -10.7588    0.6422  -23.6828 C   0  0  0  0  0  0  0  0  0  0  0  0
  -10.0554    1.8278  -24.1575 C   0  0  0  0  0  0  0  0  0  0  0  0
  -10.6236    2.9280  -24.3980 O   0  0  0  0  0  0  0  0  0  0  0  0
   -6.6857   -0.4648  -20.2575 C   0  0  0  0  0  0  0  0  0  0  0  0
   -7.0748   -0.7815  -18.9760 C   0  0  0  0  0  0  0  0  0  0  0  0
   -6.2276   -0.4279  -17.9844 N   0  0  0  0  0  0  0  0  0  0  0  0
   -5.0660    0.1958  -18.1891 C   0  0  0  0  0  0  0  0  0  0  0  0
   -4.6256    0.5378  -19.4532 C   0  0  0  0  0  0  0  0  0  0  0  0
   -3.4219    1.1852  -19.6782 C   0  0  0  0  0  0  0  0  0  0  0  0
   -3.0494    1.4940  -20.9691 C   0  0  0  0  0  0  0  0  0  0  0  0
   -3.8646    1.1635  -22.0325 C   0  0  0  0  0  0  0  0  0  0  0  0
   -5.0754    0.5107  -21.7882 C   0  0  0  0  0  0  0  0  0  0  0  0
   -5.4765    0.1875  -20.5032 C   0  0  0  0  0  0  0  0  0  0  0  0
   -7.7366    2.8068  -24.2331 C   0  0  0  0  0  0  0  0  0  0  0  0
   -8.0872    4.6565  -27.6125 C   0  0  0  0  0  0  0  0  0  0  0  0
   -8.4131    4.2267  -26.2514 N   0  0  0  0  0  0  0  0  0  0  0  0
   -7.5056    3.3186  -25.6319 C   0  0  0  0  0  0  0  0  0  0  0  0
   -6.4637    2.9090  -26.2468 O   0  0  0  0  0  0  0  0  0  0  0  0
   -9.2192    4.5489  -25.7870 H   0  0  0  0  0  0  0  0  0  0  0  0
   -6.6425   -2.0203  -24.0608 C   0  0  0  0  0  0  0  0  0  0  0  0
   -5.9406   -3.2419  -23.9341 N   0  0  0  0  0  0  0  0  0  0  0  0
   -5.0622   -3.2860  -23.4917 H   0  0  0  0  0  0  0  0  0  0  0  0
   -6.5713   -4.4267  -24.4843 C   0  0  0  0  0  0  0  0  0  0  0  0
   -6.7664   -4.5587  -25.8489 C   0  0  0  0  0  0  0  0  0  0  0  0
   -7.3767   -5.7267  -26.2672 C   0  0  0  0  0  0  0  0  0  0  0  0
   -7.7687   -6.6960  -25.4210 N   0  0  0  0  0  0  0  0  0  0  0  0
   -7.5574   -6.5235  -24.0941 C   0  0  0  0  0  0  0  0  0  0  0  0
   -6.9601   -5.3909  -23.6305 N   0  0  0  0  0  0  0  0  0  0  0  0
 29 30  1  0  0  0  0
 30 31  1  0  0  0  0
 30 33  1  0  0  0  0
 31 32  2  0  0  0  0
 28 31  1  0  0  0  0
  1 28  1  0  0  0  0
  1  2  1  0  0  0  0
  2  3  1  0  0  0  0
  3  4  1  0  0  0  0
  3  9  1  0  0  0  0
  4  5  2  0  0  0  0
  4  6  1  0  0  0  0
  6 18  1  0  0  0  0
  6  7  1  0  0  0  0
 18 19  2  0  0  0  0
 19 20  1  0  0  0  0
 20 21  2  0  0  0  0
 21 22  1  0  0  0  0
 22 23  2  0  0  0  0
 23 24  1  0  0  0  0
 24 25  2  0  0  0  0
 25 26  1  0  0  0  0
 26 27  2  0  0  0  0
 18 27  1  0  0  0  0
 22 27  1  0  0  0  0
  7  8  1  0  0  0  0
  8 34  1  0  0  0  0
  3  8  1  0  0  0  0
 34 35  1  0  0  0  0
 35 37  1  0  0  0  0
 35 36  1  0  0  0  0
 37 38  2  0  0  0  0
 38 39  1  0  0  0  0
 39 40  2  0  0  0  0
 40 41  1  0  0  0  0
 41 42  2  0  0  0  0
 37 42  1  0  0  0  0
  9 10  2  0  0  0  0
 10 11  1  0  0  0  0
 11 12  1  0  0  0  0
 11 13  2  0  0  0  0
 13 14  1  0  0  0  0
 14 15  2  0  0  0  0
 15 16  1  0  0  0  0
  9 15  1  0  0  0  0
 16 17  2  0  0  0  0
  1 16  1  0  0  0  0
M  END
$$$$
Mol_2
  PyMOL2.5          3D                             0

 42 47  0  0  0  0  0  0  0  0999 V2000
   -6.6564   -0.2020  -20.6182 N   0  0  0  0  0  0  0  0  0  0  0  0
   -7.1662    0.9004  -21.4127 C   0  0  0  0  0  0  0  0  0  0  0  0
   -6.1340    1.6006  -22.2253 C   0  0  0  0  0  0  0  0  0  0  0  0
   -6.7695    2.8869  -22.6700 C   0  0  0  0  0  0  0  0  0  0  0  0
   -6.8114    3.9726  -21.9942 O   0  0  0  0  0  0  0  0  0  0  0  0
   -7.3262    2.7050  -23.9811 N   0  0  0  0  0  0  0  0  0  0  0  0
   -7.1545    1.2771  -24.2750 C   0  0  0  0  0  0  0  0  0  0  0  0
   -5.8641    1.0211  -23.5798 C   0  0  0  0  0  0  0  0  0  0  0  0
   -4.9287    1.8177  -21.4207 C   0  0  0  0  0  0  0  0  0  0  0  0
   -4.0604    2.8315  -21.8224 C   0  0  0  0  0  0  0  0  0  0  0  0
   -2.9082    3.0888  -21.1102 C   0  0  0  0  0  0  0  0  0  0  0  0
   -1.8681    4.3750  -21.6736 Cl  0  0  0  0  0  0  0  0  0  0  0  0
   -2.5944    2.3382  -19.9770 C   0  0  0  0  0  0  0  0  0  0  0  0
   -3.4365    1.3362  -19.5658 C   0  0  0  0  0  0  0  0  0  0  0  0
   -4.5906    1.0935  -20.2964 C   0  0  0  0  0  0  0  0  0  0  0  0
   -5.4815    0.0269  -19.8539 C   0  0  0  0  0  0  0  0  0  0  0  0
   -5.2577   -0.6870  -18.8414 O   0  0  0  0  0  0  0  0  0  0  0  0
   -7.9205    3.6902  -24.8256 C   0  0  0  0  0  0  0  0  0  0  0  0
   -9.3046    3.8190  -24.8428 C   0  0  0  0  0  0  0  0  0  0  0  0
   -9.9176    4.7306  -25.6199 N   0  0  0  0  0  0  0  0  0  0  0  0
   -9.1950    5.5398  -26.4003 C   0  0  0  0  0  0  0  0  0  0  0  0
   -7.8108    5.4725  -26.4386 C   0  0  0  0  0  0  0  0  0  0  0  0
   -7.0639    6.3145  -27.2502 C   0  0  0  0  0  0  0  0  0  0  0  0
   -5.6908    6.2156  -27.2592 C   0  0  0  0  0  0  0  0  0  0  0  0
   -5.1029    5.2687  -26.4485 C   0  0  0  0  0  0  0  0  0  0  0  0
   -5.7867    4.4155  -25.6313 C   0  0  0  0  0  0  0  0  0  0  0  0
   -7.1765    4.5263  -25.6317 C   0  0  0  0  0  0  0  0  0  0  0  0
   -7.3310   -1.4718  -20.6186 C   0  0  0  0  0  0  0  0  0  0  0  0
   -6.5785   -4.0246  -23.4175 C   0  0  0  0  0  0  0  0  0  0  0  0
   -7.3203   -3.0401  -22.6367 N   0  0  0  0  0  0  0  0  0  0  0  0
   -6.6878   -2.4815  -21.4972 C   0  0  0  0  0  0  0  0  0  0  0  0
   -5.5287   -2.8669  -21.2285 O   0  0  0  0  0  0  0  0  0  0  0  0
   -8.2322   -2.7718  -22.8932 H   0  0  0  0  0  0  0  0  0  0  0  0
   -5.3417   -0.3591  -23.6343 C   0  0  0  0  0  0  0  0  0  0  0  0
   -5.6553   -0.8928  -24.9496 N   0  0  0  0  0  0  0  0  0  0  0  0
   -6.5632   -0.8307  -25.3254 H   0  0  0  0  0  0  0  0  0  0  0  0
   -4.6012   -1.5047  -25.6664 C   0  0  0  0  0  0  0  0  0  0  0  0
   -3.3467   -0.9342  -25.9000 C   0  0  0  0  0  0  0  0  0  0  0  0
   -2.6252   -1.8131  -26.6101 N   0  0  0  0  0  0  0  0  0  0  0  0
   -3.3281   -2.9101  -26.8498 N   0  0  0  0  0  0  0  0  0  0  0  0
   -2.9638   -4.1090  -27.5685 C   0  0  0  0  0  0  0  0  0  0  0  0
   -4.5360   -2.7385  -26.2810 C   0  0  0  0  0  0  0  0  0  0  0  0
 29 30  1  0  0  0  0
 30 31  1  0  0  0  0
 30 33  1  0  0  0  0
 31 32  2  0  0  0  0
 28 31  1  0  0  0  0
  1 28  1  0  0  0  0
  1  2  1  0  0  0  0
  2  3  1  0  0  0  0
  3  4  1  0  0  0  0
  3  9  1  0  0  0  0
  4  5  2  0  0  0  0
  4  6  1  0  0  0  0
  6 18  1  0  0  0  0
  6  7  1  0  0  0  0
 18 19  2  0  0  0  0
 19 20  1  0  0  0  0
 20 21  2  0  0  0  0
 21 22  1  0  0  0  0
 22 23  2  0  0  0  0
 23 24  1  0  0  0  0
 24 25  2  0  0  0  0
 25 26  1  0  0  0  0
 26 27  2  0  0  0  0
 18 27  1  0  0  0  0
 22 27  1  0  0  0  0
  7  8  1  0  0  0  0
  8 34  1  0  0  0  0
  3  8  1  0  0  0  0
 34 35  1  0  0  0  0
 35 37  1  0  0  0  0
 35 36  1  0  0  0  0
 37 38  1  0  0  0  0
 38 39  2  0  0  0  0
 39 40  1  0  0  0  0
 40 41  1  0  0  0  0
 40 42  1  0  0  0  0
 37 42  2  0  0  0  0
  9 10  2  0  0  0  0
 10 11  1  0  0  0  0
 11 12  1  0  0  0  0
 11 13  2  0  0  0  0
 13 14  1  0  0  0  0
 14 15  2  0  0  0  0
 15 16  1  0  0  0  0
  9 15  1  0  0  0  0
 16 17  2  0  0  0  0
  1 16  1  0  0  0  0
M  END
$$$$
Mol_3
  PyMOL2.5          3D                             0

 36 41  0  0  0  0  0  0  0  0999 V2000
   -7.0501   -1.8360  -23.3712 N   0  0  0  0  0  0  0  0  0  0  0  0
   -7.4882   -0.7473  -24.1822 C   0  0  0  0  0  0  0  0  0  0  0  0
   -7.2113    0.6205  -23.6637 C   0  0  0  0  0  0  0  0  0  0  0  0
   -8.4640    1.1066  -22.9774 C   0  0  0  0  0  0  0  0  0  0  0  0
   -8.7220    1.1061  -21.7484 O   0  0  0  0  0  0  0  0  0  0  0  0
   -9.3693    1.5944  -23.9592 N   0  0  0  0  0  0  0  0  0  0  0  0
   -8.6109    1.9571  -25.1353 C   0  0  0  0  0  0  0  0  0  0  0  0
   -7.1645    1.5868  -24.8192 C   0  0  0  0  0  0  0  0  0  0  0  0
   -6.6127    0.9813  -26.0899 C   0  0  0  0  0  0  0  0  0  0  0  0
   -6.0767    0.7108  -22.7417 C   0  0  0  0  0  0  0  0  0  0  0  0
   -5.5477    1.9310  -22.3774 C   0  0  0  0  0  0  0  0  0  0  0  0
   -4.4615    2.0342  -21.4995 C   0  0  0  0  0  0  0  0  0  0  0  0
   -3.9600    3.2552  -21.1575 F   0  0  0  0  0  0  0  0  0  0  0  0
   -3.8752    0.9073  -20.9617 C   0  0  0  0  0  0  0  0  0  0  0  0
   -4.3919   -0.3054  -21.3161 C   0  0  0  0  0  0  0  0  0  0  0  0
   -5.4541   -0.4068  -22.1745 C   0  0  0  0  0  0  0  0  0  0  0  0
   -5.9414   -1.7628  -22.4851 C   0  0  0  0  0  0  0  0  0  0  0  0
   -5.3765   -2.7444  -21.9725 O   0  0  0  0  0  0  0  0  0  0  0  0
  -10.7821    1.7327  -23.8781 C   0  0  0  0  0  0  0  0  0  0  0  0
  -11.6371    0.6508  -23.7385 C   0  0  0  0  0  0  0  0  0  0  0  0
  -12.9582    0.8558  -23.6683 N   0  0  0  0  0  0  0  0  0  0  0  0
  -13.4325    2.1087  -23.7345 C   0  0  0  0  0  0  0  0  0  0  0  0
  -12.6331    3.2244  -23.8731 C   0  0  0  0  0  0  0  0  0  0  0  0
  -13.1424    4.5116  -23.9394 C   0  0  0  0  0  0  0  0  0  0  0  0
  -12.3155    5.6181  -24.0790 C   0  0  0  0  0  0  0  0  0  0  0  0
  -10.9601    5.3835  -24.1492 C   0  0  0  0  0  0  0  0  0  0  0  0
  -10.4163    4.1169  -24.0866 C   0  0  0  0  0  0  0  0  0  0  0  0
  -11.2698    3.0389  -23.9475 C   0  0  0  0  0  0  0  0  0  0  0  0
   -7.7775   -3.0915  -23.4572 C   0  0  0  0  0  0  0  0  0  0  0  0
  -13.4107   -2.6664  -22.4923 C   0  0  0  0  0  0  0  0  0  0  0  0
  -11.9546   -2.7893  -22.7639 C   0  0  0  0  0  0  0  0  0  0  0  0
  -11.4450   -3.3958  -23.8930 C   0  0  0  0  0  0  0  0  0  0  0  0
  -10.1042   -3.4748  -24.0806 N   0  0  0  0  0  0  0  0  0  0  0  0
   -9.2147   -2.9695  -23.1821 C   0  0  0  0  0  0  0  0  0  0  0  0
   -9.7553   -2.3702  -22.0654 C   0  0  0  0  0  0  0  0  0  0  0  0
  -11.0862   -2.2765  -21.8509 N   0  0  0  0  0  0  0  0  0  0  0  0
 30 31  1  0  0  0  0
 31 32  2  0  0  0  0
 32 33  1  0  0  0  0
 33 34  2  0  0  0  0
 29 34  1  0  0  0  0
 34 35  1  0  0  0  0
  1 29  1  0  0  0  0
  1  2  1  0  0  0  0
  2  3  1  0  0  0  0
  3  4  1  0  0  0  0
  3 10  1  0  0  0  0
  4  5  2  0  0  0  0
  4  6  1  0  0  0  0
  6 19  1  0  0  0  0
  6  7  1  0  0  0  0
 19 20  2  0  0  0  0
 20 21  1  0  0  0  0
 21 22  2  0  0  0  0
 22 23  1  0  0  0  0
 23 24  2  0  0  0  0
 24 25  1  0  0  0  0
 25 26  2  0  0  0  0
 26 27  1  0  0  0  0
 27 28  2  0  0  0  0
 19 28  1  0  0  0  0
 23 28  1  0  0  0  0
  7  8  1  0  0  0  0
  8  9  1  0  0  0  0
  3  8  1  0  0  0  0
 10 11  2  0  0  0  0
 11 12  1  0  0  0  0
 12 13  1  0  0  0  0
 12 14  2  0  0  0  0
 14 15  1  0  0  0  0
 15 16  2  0  0  0  0
 16 17  1  0  0  0  0
 10 16  1  0  0  0  0
 17 18  2  0  0  0  0
  1 17  1  0  0  0  0
 35 36  2  0  0  0  0
 31 36  1  0  0  0  0
M  END
$$$$
Mol_4
  PyMOL2.5          3D                             0

 38 42  0  0  0  0  0  0  0  0999 V2000
   -7.8414    0.3642  -24.3403 N   0  0  0  0  0  0  0  0  0  0  0  0
   -7.3403   -0.7688  -23.6405 C   0  0  0  0  0  0  0  0  0  0  0  0
   -8.3505   -1.4564  -22.8282 C   0  0  0  0  0  0  0  0  0  0  0  0
   -8.1417   -0.8879  -21.4296 C   0  0  0  0  0  0  0  0  0  0  0  0
   -8.9027   -0.1535  -20.7742 O   0  0  0  0  0  0  0  0  0  0  0  0
   -6.8479   -1.4213  -21.0754 N   0  0  0  0  0  0  0  0  0  0  0  0
   -6.5887   -2.6086  -21.8965 C   0  0  0  0  0  0  0  0  0  0  0  0
   -7.9987   -2.8653  -22.4660 C   0  0  0  0  0  0  0  0  0  0  0  0
   -9.7131   -1.1841  -23.1820 C   0  0  0  0  0  0  0  0  0  0  0  0
  -10.7198   -1.9807  -22.6003 C   0  0  0  0  0  0  0  0  0  0  0  0
  -12.0545   -1.7758  -22.8841 C   0  0  0  0  0  0  0  0  0  0  0  0
  -13.2919   -2.7886  -22.1409 Cl  0  0  0  0  0  0  0  0  0  0  0  0
  -12.4898   -0.7910  -23.7448 C   0  0  0  0  0  0  0  0  0  0  0  0
  -11.5162   -0.0031  -24.3224 C   0  0  0  0  0  0  0  0  0  0  0  0
  -10.1924   -0.2121  -24.0360 C   0  0  0  0  0  0  0  0  0  0  0  0
   -9.1900    0.6362  -24.6716 C   0  0  0  0  0  0  0  0  0  0  0  0
   -9.5039    1.5531  -25.4652 O   0  0  0  0  0  0  0  0  0  0  0  0
   -5.9992   -0.8462  -20.0786 C   0  0  0  0  0  0  0  0  0  0  0  0
   -6.1162   -1.1037  -18.7469 C   0  0  0  0  0  0  0  0  0  0  0  0
   -5.2450   -0.4904  -17.9135 N   0  0  0  0  0  0  0  0  0  0  0  0
   -4.2790    0.3562  -18.3621 C   0  0  0  0  0  0  0  0  0  0  0  0
   -4.1324    0.6386  -19.6997 C   0  0  0  0  0  0  0  0  0  0  0  0
   -3.1692    1.4893  -20.2013 C   0  0  0  0  0  0  0  0  0  0  0  0
   -3.0770    1.7287  -21.5518 C   0  0  0  0  0  0  0  0  0  0  0  0
   -3.9441    1.1261  -22.4452 C   0  0  0  0  0  0  0  0  0  0  0  0
   -4.9012    0.2784  -21.9265 C   0  0  0  0  0  0  0  0  0  0  0  0
   -5.0151    0.0201  -20.5677 C   0  0  0  0  0  0  0  0  0  0  0  0
   -6.8513    1.3547  -24.7969 C   0  0  0  0  0  0  0  0  0  0  0  0
   -5.6301    0.5261  -28.3663 C   0  0  0  0  0  0  0  0  0  0  0  0
   -6.5144    0.9984  -27.3129 N   0  0  0  0  0  0  0  0  0  0  0  0
   -6.0931    0.9268  -25.9620 C   0  0  0  0  0  0  0  0  0  0  0  0
   -4.9298    0.4344  -25.7698 O   0  0  0  0  0  0  0  0  0  0  0  0
   -7.4000    1.3655  -27.5370 H   0  0  0  0  0  0  0  0  0  0  0  0
   -7.9710   -3.8830  -23.5189 C   0  0  0  0  0  0  0  0  0  0  0  0
   -6.7602   -4.5644  -23.6096 O   0  0  0  0  0  0  0  0  0  0  0  0
   -6.8680   -5.9148  -23.8298 C   0  0  0  0  0  0  0  0  0  0  0  0
   -7.1562   -6.6609  -22.5205 C   0  0  0  0  0  0  0  0  0  0  0  0
   -8.0818   -6.1423  -24.7102 C   0  0  0  0  0  0  0  0  0  0  0  0
 29 30  1  0  0  0  0
 30 31  1  0  0  0  0
 30 33  1  0  0  0  0
 31 32  2  0  0  0  0
 28 31  1  0  0  0  0
  1 28  1  0  0  0  0
  1  2  1  0  0  0  0
  2  3  1  0  0  0  0
  3  4  1  0  0  0  0
  3  9  1  0  0  0  0
  4  5  2  0  0  0  0
  4  6  1  0  0  0  0
  6 18  1  0  0  0  0
  6  7  1  0  0  0  0
 18 19  2  0  0  0  0
 19 20  1  0  0  0  0
 20 21  2  0  0  0  0
 21 22  1  0  0  0  0
 22 23  2  0  0  0  0
 23 24  1  0  0  0  0
 24 25  2  0  0  0  0
 25 26  1  0  0  0  0
 26 27  2  0  0  0  0
 18 27  1  0  0  0  0
 22 27  1  0  0  0  0
  7  8  1  0  0  0  0
  8 34  1  0  0  0  0
  3  8  1  0  0  0  0
 34 35  1  0  0  0  0
 35 36  1  0  0  0  0
 36 37  1  0  0  0  0
 36 38  1  0  0  0  0
  9 10  2  0  0  0  0
 10 11  1  0  0  0  0
 11 12  1  0  0  0  0
 11 13  2  0  0  0  0
 13 14  1  0  0  0  0
 14 15  2  0  0  0  0
 15 16  1  0  0  0  0
  9 15  1  0  0  0  0
 16 17  2  0  0  0  0
  1 16  1  0  0  0  0
M  END
$$$$
Mol_5
  PyMOL2.5          3D                             0

 35 40  0  0  0  0  0  0  0  0999 V2000
   -6.5185    0.7077  -22.9346 C   0  0  0  0  0  0  0  0  0  0  0  0
   -7.9248    0.1905  -22.7299 C   0  0  0  0  0  0  0  0  0  0  0  0
   -8.7639    1.4218  -22.4756 C   0  0  0  0  0  0  0  0  0  0  0  0
   -9.0400    1.9333  -23.7982 N   0  0  0  0  0  0  0  0  0  0  0  0
   -8.7663    0.9061  -24.7461 C   0  0  0  0  0  0  0  0  0  0  0  0
   -8.7937    1.0876  -25.9954 O   0  0  0  0  0  0  0  0  0  0  0  0
   -8.4547   -0.3686  -24.0085 C   0  0  0  0  0  0  0  0  0  0  0  0
   -7.5396   -1.2432  -24.7721 C   0  0  0  0  0  0  0  0  0  0  0  0
   -7.4336   -2.5680  -24.2199 N   0  0  0  0  0  0  0  0  0  0  0  0
   -8.6306   -3.2490  -23.7894 C   0  0  0  0  0  0  0  0  0  0  0  0
   -8.6866   -4.4824  -23.6292 O   0  0  0  0  0  0  0  0  0  0  0  0
   -9.8133   -2.4539  -23.5372 C   0  0  0  0  0  0  0  0  0  0  0  0
  -10.9753   -3.1216  -23.2179 C   0  0  0  0  0  0  0  0  0  0  0  0
  -12.1515   -2.4325  -23.0612 C   0  0  0  0  0  0  0  0  0  0  0  0
  -12.1095   -1.0678  -23.2369 C   0  0  0  0  0  0  0  0  0  0  0  0
  -13.2633   -0.3808  -23.0863 F   0  0  0  0  0  0  0  0  0  0  0  0
  -10.9361   -0.4039  -23.5571 C   0  0  0  0  0  0  0  0  0  0  0  0
   -9.7249   -1.0967  -23.7175 C   0  0  0  0  0  0  0  0  0  0  0  0
   -9.5209    3.2626  -24.0274 C   0  0  0  0  0  0  0  0  0  0  0  0
   -8.6787    4.3398  -24.2410 C   0  0  0  0  0  0  0  0  0  0  0  0
   -9.1382    5.5942  -24.4514 N   0  0  0  0  0  0  0  0  0  0  0  0
  -10.4317    5.8746  -24.4667 C   0  0  0  0  0  0  0  0  0  0  0  0
  -11.3307    4.8668  -24.2637 C   0  0  0  0  0  0  0  0  0  0  0  0
  -12.6791    5.1681  -24.2781 C   0  0  0  0  0  0  0  0  0  0  0  0
  -13.6051    4.1731  -24.0731 C   0  0  0  0  0  0  0  0  0  0  0  0
  -13.1858    2.8759  -23.8533 C   0  0  0  0  0  0  0  0  0  0  0  0
  -11.8339    2.6156  -23.8465 C   0  0  0  0  0  0  0  0  0  0  0  0
  -10.8812    3.5617  -24.0440 C   0  0  0  0  0  0  0  0  0  0  0  0
   -6.2154   -3.3268  -24.1080 C   0  0  0  0  0  0  0  0  0  0  0  0
   -5.6927   -3.9226  -25.3396 C   0  0  0  0  0  0  0  0  0  0  0  0
   -6.0238   -5.1477  -25.7829 N   0  0  0  0  0  0  0  0  0  0  0  0
   -5.3973   -5.4488  -26.9244 C   0  0  0  0  0  0  0  0  0  0  0  0
   -4.6226   -4.3639  -27.2337 C   0  0  0  0  0  0  0  0  0  0  0  0
   -4.8213   -3.4464  -26.2497 N   0  0  0  0  0  0  0  0  0  0  0  0
   -4.1516   -2.1740  -26.2500 C   0  0  0  0  0  0  0  0  0  0  0  0
  1  2  1  0  0  0  0
  2  3  1  0  0  0  0
  3  4  1  0  0  0  0
  4 19  1  0  0  0  0
  4  5  1  0  0  0  0
 19 20  2  0  0  0  0
 20 21  1  0  0  0  0
 21 22  2  0  0  0  0
 22 23  1  0  0  0  0
 23 24  2  0  0  0  0
 24 25  1  0  0  0  0
 25 26  2  0  0  0  0
 26 27  1  0  0  0  0
 27 28  2  0  0  0  0
 19 28  1  0  0  0  0
 23 28  1  0  0  0  0
  5  6  2  0  0  0  0
  5  7  1  0  0  0  0
  7  8  1  0  0  0  0
  2  7  1  0  0  0  0
  8  9  1  0  0  0  0
  9 29  1  0  0  0  0
  9 10  1  0  0  0  0
 29 30  1  0  0  0  0
 30 31  2  0  0  0  0
 31 32  1  0  0  0  0
 32 33  2  0  0  0  0
 33 34  1  0  0  0  0
 34 35  1  0  0  0  0
 30 34  1  0  0  0  0
 10 11  2  0  0  0  0
 10 12  1  0  0  0  0
 12 13  2  0  0  0  0
 13 14  1  0  0  0  0
 14 15  2  0  0  0  0
 15 16  1  0  0  0  0
 15 17  1  0  0  0  0
 17 18  2  0  0  0  0
 12 18  1  0  0  0  0
  7 18  1  0  0  0  0
M  END
$$$$
Mol_6
  PyMOL2.5          3D                             0

 37 40  0  0  0  0  0  0  0  0999 V2000
   -8.4849    0.1365  -23.8974 N   0  0  0  0  0  0  0  0  0  0  0  0
   -8.3931   -0.4349  -22.6287 C   0  0  0  0  0  0  0  0  0  0  0  0
   -9.0451    0.3023  -21.7290 O   0  0  0  0  0  0  0  0  0  0  0  0
   -7.7734   -1.5989  -22.0722 C   0  0  0  0  0  0  0  0  0  0  0  0
   -6.3013   -1.4958  -21.7235 C   0  0  0  0  0  0  0  0  0  0  0  0
   -5.8612   -2.7294  -21.0462 N   0  0  0  0  0  0  0  0  0  0  0  0
   -6.1141   -3.9437  -21.7845 C   0  0  0  0  0  0  0  0  0  0  0  0
   -5.3729   -4.9485  -21.5989 O   0  0  0  0  0  0  0  0  0  0  0  0
   -7.2345   -3.9363  -22.7185 C   0  0  0  0  0  0  0  0  0  0  0  0
   -7.4552   -5.0929  -23.4419 C   0  0  0  0  0  0  0  0  0  0  0  0
   -8.4973   -5.0854  -24.3438 C   0  0  0  0  0  0  0  0  0  0  0  0
   -9.3110   -3.9768  -24.5411 C   0  0  0  0  0  0  0  0  0  0  0  0
  -10.6222   -4.0173  -25.6995 Cl  0  0  0  0  0  0  0  0  0  0  0  0
   -9.0876   -2.8055  -23.8079 C   0  0  0  0  0  0  0  0  0  0  0  0
   -8.0400   -2.8042  -22.8967 C   0  0  0  0  0  0  0  0  0  0  0  0
   -5.2307   -2.7384  -19.7625 C   0  0  0  0  0  0  0  0  0  0  0  0
   -5.7266   -1.6392  -18.8756 C   0  0  0  0  0  0  0  0  0  0  0  0
   -6.9197   -1.7298  -18.4666 O   0  0  0  0  0  0  0  0  0  0  0  0
   -4.8829   -0.5350  -18.5089 N   0  0  0  0  0  0  0  0  0  0  0  0
   -5.3388    0.5355  -17.6558 C   0  0  0  0  0  0  0  0  0  0  0  0
   -3.9606   -0.5081  -18.8523 H   0  0  0  0  0  0  0  0  0  0  0  0
   -9.3864    1.3371  -23.8753 C   0  0  0  0  0  0  0  0  0  0  0  0
   -8.8038    2.5833  -23.9362 C   0  0  0  0  0  0  0  0  0  0  0  0
   -9.6274    3.6480  -23.9153 N   0  0  0  0  0  0  0  0  0  0  0  0
  -10.9606    3.4723  -23.8376 C   0  0  0  0  0  0  0  0  0  0  0  0
  -11.5530    2.2393  -23.7765 C   0  0  0  0  0  0  0  0  0  0  0  0
  -12.9400    2.1379  -23.6976 C   0  0  0  0  0  0  0  0  0  0  0  0
  -13.4837    0.8672  -23.6382 C   0  0  0  0  0  0  0  0  0  0  0  0
  -12.6846   -0.2515  -23.6565 C   0  0  0  0  0  0  0  0  0  0  0  0
  -11.3046   -0.1286  -23.7355 C   0  0  0  0  0  0  0  0  0  0  0  0
  -10.7436    1.1253  -23.7955 C   0  0  0  0  0  0  0  0  0  0  0  0
   -7.9352   -0.1119  -25.1584 C   0  0  0  0  0  0  0  0  0  0  0  0
   -6.3515   -1.6569  -26.0513 C   0  0  0  0  0  0  0  0  0  0  0  0
   -6.5497   -0.5039  -25.3450 C   0  0  0  0  0  0  0  0  0  0  0  0
   -5.3367    0.1472  -24.9376 C   0  0  0  0  0  0  0  0  0  0  0  0
   -5.3559    1.4364  -24.9868 O   0  0  0  0  0  0  0  0  0  0  0  0
   -4.1697   -0.4076  -24.5033 O   0  5  0  0  0  0  0  0  0  0  0  0
 33 34  2  0  0  0  0
 32 34  1  0  0  0  0
 34 35  1  0  0  0  0
  1 32  1  0  0  0  0
  1  2  1  0  0  0  0
  1 22  1  0  0  0  0
  2  3  2  0  0  0  0
  2  4  1  0  0  0  0
  4  5  1  0  0  0  0
  5  6  1  0  0  0  0
  6 16  1  0  0  0  0
  6  7  1  0  0  0  0
 16 17  1  0  0  0  0
 17 18  2  0  0  0  0
 17 19  1  0  0  0  0
 19 20  1  0  0  0  0
 19 21  1  0  0  0  0
  7  8  2  0  0  0  0
  7  9  1  0  0  0  0
  9 10  2  0  0  0  0
 10 11  1  0  0  0  0
 11 12  2  0  0  0  0
 12 13  1  0  0  0  0
 12 14  1  0  0  0  0
 14 15  2  0  0  0  0
  4 15  1  0  0  0  0
  9 15  1  0  0  0  0
 22 23  2  0  0  0  0
 23 24  1  0  0  0  0
 24 25  2  0  0  0  0
 25 26  1  0  0  0  0
 26 27  2  0  0  0  0
 27 28  1  0  0  0  0
 28 29  2  0  0  0  0
 29 30  1  0  0  0  0
 30 31  2  0  0  0  0
 22 31  1  0  0  0  0
 26 31  1  0  0  0  0
 35 36  2  0  0  0  0
 35 37  1  0  0  0  0
M  END
$$$$
Mol_7
  PyMOL2.5          3D                             0

 21 23  0  0  0  0  0  0  0  0999 V2000
   -6.2970   -1.9912  -21.4777 C   0  0  0  0  0  0  0  0  0  0  0  0
   -5.8741   -1.1752  -20.3291 C   0  0  0  0  0  0  0  0  0  0  0  0
   -6.4564   -1.2728  -19.0824 C   0  0  0  0  0  0  0  0  0  0  0  0
   -6.0826   -0.5351  -18.0257 N   0  0  0  0  0  0  0  0  0  0  0  0
   -5.0722    0.3726  -18.1569 C   0  0  0  0  0  0  0  0  0  0  0  0
   -4.4686    0.4945  -19.3926 C   0  0  0  0  0  0  0  0  0  0  0  0
   -3.4436    1.4024  -19.5607 C   0  0  0  0  0  0  0  0  0  0  0  0
   -2.7844    1.5909  -20.7564 C   0  0  0  0  0  0  0  0  0  0  0  0
   -3.1730    0.8303  -21.8379 C   0  0  0  0  0  0  0  0  0  0  0  0
   -4.1897   -0.0778  -21.6919 C   0  0  0  0  0  0  0  0  0  0  0  0
   -4.8393   -0.2549  -20.4900 C   0  0  0  0  0  0  0  0  0  0  0  0
   -7.2652   -6.3928  -24.1743 C   0  0  0  0  0  0  0  0  0  0  0  0
   -5.8741   -6.3658  -23.5881 C   0  0  0  0  0  0  0  0  0  0  0  0
   -5.8308   -5.7203  -22.2335 C   0  0  0  0  0  0  0  0  0  0  0  0
   -6.2863   -4.3291  -22.3665 N   0  0  0  0  0  0  0  0  0  0  0  0
   -5.8644   -3.3929  -21.3828 C   0  0  0  0  0  0  0  0  0  0  0  0
   -5.1346   -3.7832  -20.4586 O   0  0  0  0  0  0  0  0  0  0  0  0
   -7.1358   -3.9861  -23.4855 C   0  0  0  0  0  0  0  0  0  0  0  0
   -8.0358   -5.1318  -23.8866 C   0  0  0  0  0  0  0  0  0  0  0  0
   -8.5715   -6.7087  -26.2667 C   0  0  0  0  0  0  0  0  0  0  0  0
   -7.2065   -6.7430  -25.6416 C   0  0  0  0  0  0  0  0  0  0  0  0
 20 21  1  0  0  0  0
 12 21  1  0  0  0  0
 12 13  1  0  0  0  0
 13 14  1  0  0  0  0
 14 15  1  0  0  0  0
 15 16  1  0  0  0  0
 15 18  1  0  0  0  0
 16 17  2  0  0  0  0
  1 16  1  0  0  0  0
  1  2  1  0  0  0  0
  2  3  2  0  0  0  0
  3  4  1  0  0  0  0
  4  5  2  0  0  0  0
  5  6  1  0  0  0  0
  6  7  2  0  0  0  0
  7  8  1  0  0  0  0
  8  9  2  0  0  0  0
  9 10  1  0  0  0  0
 10 11  2  0  0  0  0
  2 11  1  0  0  0  0
  6 11  1  0  0  0  0
 18 19  1  0  0  0  0
 12 19  1  0  0  0  0
M  END
$$$$
Mol_8
  PyMOL2.5          3D                             0

 26 29  0  0  0  0  0  0  0  0999 V2000
   -7.9688   -2.2546  -25.0073 N   0  0  0  0  0  0  0  0  0  0  0  0
   -8.5821   -3.2119  -24.1382 C   0  0  0  0  0  0  0  0  0  0  0  0
   -7.4023   -3.0402  -23.2221 C   0  0  0  0  0  0  0  0  0  0  0  0
   -6.6645   -2.6527  -24.4521 C   0  0  0  0  0  0  0  0  0  0  0  0
   -7.5288   -1.9961  -22.1800 C   0  0  0  0  0  0  0  0  0  0  0  0
   -8.3423   -1.0592  -22.0939 O   0  0  0  0  0  0  0  0  0  0  0  0
   -6.4743   -2.2927  -21.2401 N   0  0  0  0  0  0  0  0  0  0  0  0
   -6.0813   -3.6627  -21.4668 C   0  0  0  0  0  0  0  0  0  0  0  0
   -5.1836   -4.2562  -20.8230 O   0  0  0  0  0  0  0  0  0  0  0  0
   -6.9001   -4.1766  -22.5375 N   0  0  0  0  0  0  0  0  0  0  0  0
   -7.0758   -5.5999  -22.7412 C   0  0  0  0  0  0  0  0  0  0  0  0
   -5.9434   -1.3846  -20.2824 C   0  0  0  0  0  0  0  0  0  0  0  0
   -6.4439   -1.4328  -18.9999 C   0  0  0  0  0  0  0  0  0  0  0  0
   -5.9751   -0.5909  -18.0461 N   0  0  0  0  0  0  0  0  0  0  0  0
   -5.0153    0.3140  -18.3083 C   0  0  0  0  0  0  0  0  0  0  0  0
   -4.4959    0.3806  -19.5941 C   0  0  0  0  0  0  0  0  0  0  0  0
   -3.5011    1.3060  -19.8989 C   0  0  0  0  0  0  0  0  0  0  0  0
   -3.0114    1.3401  -21.1892 C   0  0  0  0  0  0  0  0  0  0  0  0
   -3.4588    0.5097  -22.1723 C   0  0  0  0  0  0  0  0  0  0  0  0
   -4.4454   -0.4141  -21.8860 C   0  0  0  0  0  0  0  0  0  0  0  0
   -4.9523   -0.4646  -20.5918 C   0  0  0  0  0  0  0  0  0  0  0  0
   -8.0324   -2.5549  -26.6602 S   0  0  0  0  0  0  0  0  0  0  0  0
   -7.9642   -1.2082  -27.3749 O   0  0  0  0  0  0  0  0  0  0  0  0
   -9.3658   -3.2058  -26.9549 O   0  0  0  0  0  0  0  0  0  0  0  0
   -7.0062   -5.0159  -27.3660 C   0  0  0  0  0  0  0  0  0  0  0  0
   -6.7185   -3.5620  -27.2602 C   0  0  0  0  0  0  0  0  0  0  0  0
 25 26  1  0  0  0  0
 22 26  1  0  0  0  0
 22 23  2  0  0  0  0
 22 24  2  0  0  0  0
  1 22  1  0  0  0  0
  1  2  1  0  0  0  0
  2  3  1  0  0  0  0
  3  4  1  0  0  0  0
  3  5  1  0  0  0  0
  1  4  1  0  0  0  0
  5  6  2  0  0  0  0
  5  7  1  0  0  0  0
  7 12  1  0  0  0  0
  7  8  1  0  0  0  0
 12 13  2  0  0  0  0
 13 14  1  0  0  0  0
 14 15  2  0  0  0  0
 15 16  1  0  0  0  0
 16 17  2  0  0  0  0
 17 18  1  0  0  0  0
 18 19  2  0  0  0  0
 19 20  1  0  0  0  0
 20 21  2  0  0  0  0
 12 21  1  0  0  0  0
 16 21  1  0  0  0  0
  8  9  2  0  0  0  0
  8 10  1  0  0  0  0
 10 11  1  0  0  0  0
  3 10  1  0  0  0  0
M  END
$$$$
Mol_9
  PyMOL2.5          3D                             0

 36 40  0  0  0  0  0  0  0  0999 V2000
   -6.3784   -3.8205  -25.6536 N   0  0  0  0  0  0  0  0  0  0  0  0
   -6.1373   -3.0122  -24.5005 C   0  0  0  0  0  0  0  0  0  0  0  0
   -7.1514   -3.1238  -23.4092 C   0  0  0  0  0  0  0  0  0  0  0  0
   -6.9716   -1.8978  -22.5615 C   0  0  0  0  0  0  0  0  0  0  0  0
   -7.5086   -0.7780  -22.7706 O   0  0  0  0  0  0  0  0  0  0  0  0
   -6.0968   -2.1867  -21.4753 N   0  0  0  0  0  0  0  0  0  0  0  0
   -5.6729   -3.5698  -21.6597 C   0  0  0  0  0  0  0  0  0  0  0  0
   -6.8297   -4.1890  -22.3756 C   0  0  0  0  0  0  0  0  0  0  0  0
   -8.5108   -3.2430  -23.9359 C   0  0  0  0  0  0  0  0  0  0  0  0
   -9.5672   -2.9595  -23.0949 C   0  0  0  0  0  0  0  0  0  0  0  0
  -10.8883   -3.0381  -23.4825 C   0  0  0  0  0  0  0  0  0  0  0  0
  -12.1473   -2.6533  -22.3238 Cl  0  0  0  0  0  0  0  0  0  0  0  0
  -11.1763   -3.4194  -24.7770 C   0  0  0  0  0  0  0  0  0  0  0  0
  -10.1381   -3.7123  -25.6513 C   0  0  0  0  0  0  0  0  0  0  0  0
   -8.8305   -3.6215  -25.2245 C   0  0  0  0  0  0  0  0  0  0  0  0
   -7.7248   -3.9242  -26.1258 C   0  0  0  0  0  0  0  0  0  0  0  0
   -7.9716   -4.2788  -27.3277 O   0  0  0  0  0  0  0  0  0  0  0  0
   -5.7096   -1.3113  -20.4206 C   0  0  0  0  0  0  0  0  0  0  0  0
   -6.3676   -1.5113  -19.2020 C   0  0  0  0  0  0  0  0  0  0  0  0
   -6.0885   -0.7452  -18.1256 N   0  0  0  0  0  0  0  0  0  0  0  0
   -5.1627    0.2280  -18.2221 C   0  0  0  0  0  0  0  0  0  0  0  0
   -4.4938    0.4471  -19.4240 C   0  0  0  0  0  0  0  0  0  0  0  0
   -3.5451    1.4443  -19.5232 C   0  0  0  0  0  0  0  0  0  0  0  0
   -2.8799    1.6596  -20.7243 C   0  0  0  0  0  0  0  0  0  0  0  0
   -3.1836    0.8559  -21.8253 C   0  0  0  0  0  0  0  0  0  0  0  0
   -4.1344   -0.1520  -21.7463 C   0  0  0  0  0  0  0  0  0  0  0  0
   -4.7623   -0.3295  -20.5520 C   0  0  0  0  0  0  0  0  0  0  0  0
   -5.3698   -4.5406  -26.3781 C   0  0  0  0  0  0  0  0  0  0  0  0
   -4.2585   -7.9777  -24.9520 C   0  0  0  0  0  0  0  0  0  0  0  0
   -4.2337   -6.5671  -25.3052 N   0  0  0  0  0  0  0  0  0  0  0  0
   -5.3074   -5.9690  -25.9782 C   0  0  0  0  0  0  0  0  0  0  0  0
   -6.3048   -6.6917  -26.2725 O   0  0  0  0  0  0  0  0  0  0  0  0
   -3.4485   -6.0229  -25.0673 H   0  0  0  0  0  0  0  0  0  0  0  0
   -6.5524   -5.5163  -22.9737 C   0  0  0  0  0  0  0  0  0  0  0  0
   -5.4610   -6.0990  -22.3745 O   0  0  0  0  0  0  0  0  0  0  0  0
   -5.7297   -7.1765  -21.5634 C   0  0  0  0  0  0  0  0  0  0  0  0
 29 30  1  0  0  0  0
 30 31  1  0  0  0  0
 30 33  1  0  0  0  0
 31 32  2  0  0  0  0
 28 31  1  0  0  0  0
  1 28  1  0  0  0  0
  1  2  1  0  0  0  0
  2  3  1  0  0  0  0
  3  4  1  0  0  0  0
  3  9  1  0  0  0  0
  4  5  2  0  0  0  0
  4  6  1  0  0  0  0
  6 18  1  0  0  0  0
  6  7  1  0  0  0  0
 18 19  2  0  0  0  0
 19 20  1  0  0  0  0
 20 21  2  0  0  0  0
 21 22  1  0  0  0  0
 22 23  2  0  0  0  0
 23 24  1  0  0  0  0
 24 25  2  0  0  0  0
 25 26  1  0  0  0  0
 26 27  2  0  0  0  0
 18 27  1  0  0  0  0
 22 27  1  0  0  0  0
  7  8  1  0  0  0  0
  8 34  1  0  0  0  0
  3  8  1  0  0  0  0
 34 35  1  0  0  0  0
 35 36  1  0  0  0  0
  9 10  2  0  0  0  0
 10 11  1  0  0  0  0
 11 12  1  0  0  0  0
 11 13  2  0  0  0  0
 13 14  1  0  0  0  0
 14 15  2  0  0  0  0
 15 16  1  0  0  0  0
  9 15  1  0  0  0  0
 16 17  2  0  0  0  0
  1 16  1  0  0  0  0
M  END
$$$$
Mol_10
  PyMOL2.5          3D                             0

 21 23  0  0  0  0  0  0  0  0999 V2000
   -6.2132   -2.2897  -21.3545 C   0  0  0  0  0  0  0  0  0  0  0  0
   -4.6680   -7.8829  -24.8041 C   0  0  0  0  0  0  0  0  0  0  0  0
   -5.2135   -6.6539  -24.1002 C   0  0  0  0  0  0  0  0  0  0  0  0
   -6.6859   -6.6181  -24.2006 C   0  0  0  0  0  0  0  0  0  0  0  0
   -7.4734   -5.6128  -23.7940 C   0  0  0  0  0  0  0  0  0  0  0  0
   -6.9355   -4.3634  -23.1670 C   0  0  0  0  0  0  0  0  0  0  0  0
   -6.1325   -4.7170  -21.9911 N   0  0  0  0  0  0  0  0  0  0  0  0
   -5.7793   -3.6827  -21.0879 C   0  0  0  0  0  0  0  0  0  0  0  0
   -5.1000   -3.8777  -20.0415 O   0  0  0  0  0  0  0  0  0  0  0  0
   -5.6642   -6.0659  -21.6752 C   0  0  0  0  0  0  0  0  0  0  0  0
   -4.7413   -6.6287  -22.6966 C   0  0  0  0  0  0  0  0  0  0  0  0
   -5.8310   -1.3767  -20.2455 C   0  0  0  0  0  0  0  0  0  0  0  0
   -6.4017   -1.4550  -18.9877 C   0  0  0  0  0  0  0  0  0  0  0  0
   -6.0528   -0.6248  -17.9836 N   0  0  0  0  0  0  0  0  0  0  0  0
   -5.1070    0.3412  -18.1743 C   0  0  0  0  0  0  0  0  0  0  0  0
   -4.5039    0.4668  -19.4072 C   0  0  0  0  0  0  0  0  0  0  0  0
   -3.5360    1.4305  -19.6595 C   0  0  0  0  0  0  0  0  0  0  0  0
   -2.9320    1.5524  -20.9037 C   0  0  0  0  0  0  0  0  0  0  0  0
   -3.2945    0.6959  -21.9331 C   0  0  0  0  0  0  0  0  0  0  0  0
   -4.2657   -0.2775  -21.6947 C   0  0  0  0  0  0  0  0  0  0  0  0
   -4.8594   -0.3901  -20.4548 C   0  0  0  0  0  0  0  0  0  0  0  0
  2  3  1  0  0  0  0
  3  4  1  0  0  0  0
  4  5  2  0  0  0  0
  5  6  1  0  0  0  0
  6  7  1  0  0  0  0
  7  8  1  0  0  0  0
  7 10  1  0  0  0  0
  8  9  2  0  0  0  0
  1  8  1  0  0  0  0
  1 12  1  0  0  0  0
 12 13  2  0  0  0  0
 13 14  1  0  0  0  0
 14 15  2  0  0  0  0
 15 16  1  0  0  0  0
 16 17  2  0  0  0  0
 17 18  1  0  0  0  0
 18 19  2  0  0  0  0
 19 20  1  0  0  0  0
 20 21  2  0  0  0  0
 12 21  1  0  0  0  0
 16 21  1  0  0  0  0
 10 11  1  0  0  0  0
  3 11  1  0  0  0  0
M  END
$$$$
Mol_11
  PyMOL2.5          3D                             0

 36 41  0  0  0  0  0  0  0  0999 V2000
   -6.8312   -5.4971  -22.6297 C   0  0  0  0  0  0  0  0  0  0  0  0
   -6.9687   -4.0923  -22.1485 C   0  0  0  0  0  0  0  0  0  0  0  0
   -5.6590   -3.5562  -21.5523 C   0  0  0  0  0  0  0  0  0  0  0  0
   -6.0229   -2.1597  -21.3957 N   0  0  0  0  0  0  0  0  0  0  0  0
   -6.9037   -1.8278  -22.4859 C   0  0  0  0  0  0  0  0  0  0  0  0
   -7.4252   -0.6981  -22.7318 O   0  0  0  0  0  0  0  0  0  0  0  0
   -7.1030   -3.0815  -23.3009 C   0  0  0  0  0  0  0  0  0  0  0  0
   -5.9725   -3.2342  -24.2520 C   0  0  0  0  0  0  0  0  0  0  0  0
   -6.3010   -3.1398  -25.6519 N   0  0  0  0  0  0  0  0  0  0  0  0
   -7.6095   -3.2420  -26.1835 C   0  0  0  0  0  0  0  0  0  0  0  0
   -7.8059   -3.3202  -27.4117 O   0  0  0  0  0  0  0  0  0  0  0  0
   -8.7160   -3.2518  -25.2335 C   0  0  0  0  0  0  0  0  0  0  0  0
   -9.9817   -3.3343  -25.7401 C   0  0  0  0  0  0  0  0  0  0  0  0
  -11.0808   -3.3338  -24.9174 C   0  0  0  0  0  0  0  0  0  0  0  0
  -10.8517   -3.2466  -23.5622 C   0  0  0  0  0  0  0  0  0  0  0  0
  -11.9375   -3.2443  -22.7246 F   0  0  0  0  0  0  0  0  0  0  0  0
   -9.5529   -3.1621  -23.0423 C   0  0  0  0  0  0  0  0  0  0  0  0
   -8.4461   -3.1627  -23.8626 C   0  0  0  0  0  0  0  0  0  0  0  0
   -5.6155   -1.2505  -20.3788 C   0  0  0  0  0  0  0  0  0  0  0  0
   -6.2335   -1.4196  -19.1343 C   0  0  0  0  0  0  0  0  0  0  0  0
   -5.9210   -0.6075  -18.0905 N   0  0  0  0  0  0  0  0  0  0  0  0
   -5.0096    0.3633  -18.2645 C   0  0  0  0  0  0  0  0  0  0  0  0
   -4.3787    0.5569  -19.4868 C   0  0  0  0  0  0  0  0  0  0  0  0
   -3.4435    1.5528  -19.6656 C   0  0  0  0  0  0  0  0  0  0  0  0
   -2.8427    1.7039  -20.9062 C   0  0  0  0  0  0  0  0  0  0  0  0
   -3.1537    0.8841  -21.9713 C   0  0  0  0  0  0  0  0  0  0  0  0
   -4.0902   -0.1171  -21.8013 C   0  0  0  0  0  0  0  0  0  0  0  0
   -4.6766   -0.2605  -20.5813 C   0  0  0  0  0  0  0  0  0  0  0  0
   -5.2138   -2.9246  -26.5892 C   0  0  0  0  0  0  0  0  0  0  0  0
   -4.6166   -1.5691  -26.4686 C   0  0  0  0  0  0  0  0  0  0  0  0
   -5.1673   -0.4273  -27.0358 C   0  0  0  0  0  0  0  0  0  0  0  0
   -4.3409    0.5825  -26.7039 N   0  3  0  0  0  0  0  0  0  0  0  0
   -3.3292    0.0954  -25.9688 C   0  0  0  0  0  0  0  0  0  0  0  0
   -3.4895   -1.2422  -25.8155 N   0  0  0  0  0  0  0  0  0  0  0  0
   -4.4596    1.5259  -26.9592 H   0  0  0  0  0  0  0  0  0  0  0  0
   -2.8962   -1.8537  -25.3223 H   0  0  0  0  0  0  0  0  0  0  0  0
  1  2  1  0  0  0  0
  2  3  1  0  0  0  0
  3  4  1  0  0  0  0
  4 19  1  0  0  0  0
  4  5  1  0  0  0  0
 19 20  2  0  0  0  0
 20 21  1  0  0  0  0
 21 22  2  0  0  0  0
 22 23  1  0  0  0  0
 23 24  2  0  0  0  0
 24 25  1  0  0  0  0
 25 26  2  0  0  0  0
 26 27  1  0  0  0  0
 27 28  2  0  0  0  0
 19 28  1  0  0  0  0
 23 28  1  0  0  0  0
  5  6  2  0  0  0  0
  5  7  1  0  0  0  0
  7  8  1  0  0  0  0
  2  7  1  0  0  0  0
  8  9  1  0  0  0  0
  9 29  1  0  0  0  0
  9 10  1  0  0  0  0
 29 30  1  0  0  0  0
 30 31  2  0  0  0  0
 31 32  1  0  0  0  0
 32 33  2  0  0  0  0
 32 35  1  0  0  0  0
 33 34  1  0  0  0  0
 30 34  1  0  0  0  0
 34 36  1  0  0  0  0
 10 11  2  0  0  0  0
 10 12  1  0  0  0  0
 12 13  2  0  0  0  0
 13 14  1  0  0  0  0
 14 15  2  0  0  0  0
 15 16  1  0  0  0  0
 15 17  1  0  0  0  0
 17 18  2  0  0  0  0
 12 18  1  0  0  0  0
  7 18  1  0  0  0  0
M  END
$$$$
Mol_12
  PyMOL2.5          3D                             0

 30 34  0  0  0  0  0  0  0  0999 V2000
   -7.2495   -5.1799  -22.9843 C   0  0  0  0  0  0  0  0  0  0  0  0
   -6.9757   -3.7785  -22.6896 N   0  0  0  0  0  0  0  0  0  0  0  0
   -6.2012   -3.3099  -21.5641 C   0  0  0  0  0  0  0  0  0  0  0  0
   -5.3521   -4.0039  -20.9099 O   0  0  0  0  0  0  0  0  0  0  0  0
   -6.5532   -1.9522  -21.3221 N   0  0  0  0  0  0  0  0  0  0  0  0
   -7.5353   -1.6151  -22.3023 C   0  0  0  0  0  0  0  0  0  0  0  0
   -8.3418   -0.6505  -22.1869 O   0  0  0  0  0  0  0  0  0  0  0  0
   -7.3760   -2.6002  -23.3888 C   0  0  0  0  0  0  0  0  0  0  0  0
   -8.5113   -2.7207  -24.3728 C   0  0  0  0  0  0  0  0  0  0  0  0
   -7.7446   -1.8950  -25.2701 N   0  0  0  0  0  0  0  0  0  0  0  0
   -6.4946   -2.1354  -24.5278 C   0  0  0  0  0  0  0  0  0  0  0  0
   -5.9986   -1.1472  -20.2904 C   0  0  0  0  0  0  0  0  0  0  0  0
   -6.5354   -1.2341  -19.0087 C   0  0  0  0  0  0  0  0  0  0  0  0
   -6.0289   -0.4821  -18.0112 N   0  0  0  0  0  0  0  0  0  0  0  0
   -5.0054    0.3723  -18.1868 C   0  0  0  0  0  0  0  0  0  0  0  0
   -4.4324    0.4989  -19.4436 C   0  0  0  0  0  0  0  0  0  0  0  0
   -3.3831    1.3496  -19.7064 C   0  0  0  0  0  0  0  0  0  0  0  0
   -2.8333    1.4547  -20.9662 C   0  0  0  0  0  0  0  0  0  0  0  0
   -3.3479    0.6837  -22.0029 C   0  0  0  0  0  0  0  0  0  0  0  0
   -4.3903   -0.1528  -21.7132 C   0  0  0  0  0  0  0  0  0  0  0  0
   -4.9587   -0.2776  -20.4641 C   0  0  0  0  0  0  0  0  0  0  0  0
   -7.6009   -2.4713  -26.8700 S   0  0  0  0  0  0  0  0  0  0  0  0
   -8.4808   -1.7150  -27.8305 O   0  0  0  0  0  0  0  0  0  0  0  0
   -6.2013   -2.3348  -27.3951 O   0  0  0  0  0  0  0  0  0  0  0  0
   -8.0379   -4.1560  -27.0449 C   0  0  0  0  0  0  0  0  0  0  0  0
   -9.3104   -4.4855  -27.4645 C   0  0  0  0  0  0  0  0  0  0  0  0
   -9.7415   -5.7853  -27.6291 C   0  0  0  0  0  0  0  0  0  0  0  0
   -8.8112   -6.7803  -27.3456 C   0  0  0  0  0  0  0  0  0  0  0  0
   -7.5319   -6.4598  -26.9240 C   0  0  0  0  0  0  0  0  0  0  0  0
   -7.1293   -5.1377  -26.7683 C   0  0  0  0  0  0  0  0  0  0  0  0
  1  2  1  0  0  0  0
  2  3  1  0  0  0  0
  3  4  2  0  0  0  0
  3  5  1  0  0  0  0
  5 12  1  0  0  0  0
  5  6  1  0  0  0  0
 12 13  2  0  0  0  0
 13 14  1  0  0  0  0
 14 15  2  0  0  0  0
 15 16  1  0  0  0  0
 16 17  2  0  0  0  0
 17 18  1  0  0  0  0
 18 19  2  0  0  0  0
 19 20  1  0  0  0  0
 20 21  2  0  0  0  0
 12 21  1  0  0  0  0
 16 21  1  0  0  0  0
  6  7  2  0  0  0  0
  6  8  1  0  0  0  0
  8  9  1  0  0  0  0
  2  8  1  0  0  0  0
  9 10  1  0  0  0  0
 10 22  1  0  0  0  0
 10 11  1  0  0  0  0
 22 23  2  0  0  0  0
 22 24  2  0  0  0  0
 22 25  1  0  0  0  0
 25 26  2  0  0  0  0
 26 27  1  0  0  0  0
 27 28  2  0  0  0  0
 28 29  1  0  0  0  0
 29 30  2  0  0  0  0
 25 30  1  0  0  0  0
  8 11  1  0  0  0  0
M  END
$$$$
Mol_13
  PyMOL2.5          3D                             0

 45 51  0  0  0  0  0  0  0  0999 V2000
  -10.1603    2.1329  -24.9033 O   0  0  0  0  0  0  0  0  0  0  0  0
   -9.8475    1.0587  -24.3291 C   0  0  0  0  0  0  0  0  0  0  0  0
  -10.8178    0.1169  -23.7829 C   0  0  0  0  0  0  0  0  0  0  0  0
  -12.1430    0.4167  -23.9315 C   0  0  0  0  0  0  0  0  0  0  0  0
  -13.1256   -0.4278  -23.4675 C   0  0  0  0  0  0  0  0  0  0  0  0
  -12.7129   -1.5872  -22.8475 C   0  0  0  0  0  0  0  0  0  0  0  0
  -13.9321   -2.6837  -22.2461 Cl  0  0  0  0  0  0  0  0  0  0  0  0
  -11.3533   -1.8911  -22.6966 C   0  0  0  0  0  0  0  0  0  0  0  0
  -10.3651   -1.0482  -23.1593 C   0  0  0  0  0  0  0  0  0  0  0  0
   -8.9510   -1.3150  -23.0049 C   0  0  0  0  0  0  0  0  0  0  0  0
   -8.1900   -0.7310  -24.1583 C   0  0  0  0  0  0  0  0  0  0  0  0
   -8.4687    0.6983  -24.1793 N   0  0  0  0  0  0  0  0  0  0  0  0
   -8.5011   -0.4981  -21.8105 C   0  0  0  0  0  0  0  0  0  0  0  0
   -9.0529    0.5102  -21.3179 O   0  0  0  0  0  0  0  0  0  0  0  0
   -7.2857   -1.1019  -21.3209 N   0  0  0  0  0  0  0  0  0  0  0  0
   -7.1453   -2.3734  -21.9561 C   0  0  0  0  0  0  0  0  0  0  0  0
   -8.5202   -2.6509  -22.5888 C   0  0  0  0  0  0  0  0  0  0  0  0
   -6.3623   -0.5711  -20.3786 C   0  0  0  0  0  0  0  0  0  0  0  0
   -6.5462   -0.6395  -19.0134 C   0  0  0  0  0  0  0  0  0  0  0  0
   -5.6862   -0.1451  -18.1161 N   0  0  0  0  0  0  0  0  0  0  0  0
   -4.5741    0.4556  -18.5672 C   0  0  0  0  0  0  0  0  0  0  0  0
   -4.3296    0.5578  -19.9185 C   0  0  0  0  0  0  0  0  0  0  0  0
   -3.1508    1.1972  -20.2907 C   0  0  0  0  0  0  0  0  0  0  0  0
   -2.8655    1.3223  -21.6228 C   0  0  0  0  0  0  0  0  0  0  0  0
   -3.7440    0.8167  -22.5599 C   0  0  0  0  0  0  0  0  0  0  0  0
   -4.9142    0.1826  -22.1646 C   0  0  0  0  0  0  0  0  0  0  0  0
   -5.2171    0.0478  -20.8358 C   0  0  0  0  0  0  0  0  0  0  0  0
   -7.4350    1.7058  -24.0670 C   0  0  0  0  0  0  0  0  0  0  0  0
   -7.6148    2.5512  -22.8284 C   0  0  0  0  0  0  0  0  0  0  0  0
   -7.7551    3.9472  -23.0653 N   0  3  0  0  0  0  0  0  0  0  0  0
   -7.4506    4.3708  -24.4054 C   0  0  0  0  0  0  0  0  0  0  0  0
   -7.4301    5.8878  -24.4079 C   0  0  0  0  0  0  0  0  0  0  0  0
   -6.2649    6.3421  -23.8103 O   0  0  0  0  0  0  0  0  0  0  0  0
   -5.7918    5.4290  -22.8982 C   0  0  0  0  0  0  0  0  0  0  0  0
   -6.9010    4.6989  -22.1673 C   0  0  0  0  0  0  0  0  0  0  0  0
   -8.7453    4.1321  -22.9046 H   0  0  0  0  0  0  0  0  0  0  0  0
   -8.2195   -3.6160  -23.7019 C   0  0  0  0  0  0  0  0  0  0  0  0
   -8.1398   -4.9362  -23.1021 N   0  0  0  0  0  0  0  0  0  0  0  0
   -8.8818   -5.2800  -22.5540 H   0  0  0  0  0  0  0  0  0  0  0  0
   -6.9722   -5.7297  -23.3170 C   0  0  0  0  0  0  0  0  0  0  0  0
   -6.8506   -6.2984  -24.5299 N   0  0  0  0  0  0  0  0  0  0  0  0
   -5.7752   -7.0569  -24.7953 C   0  0  0  0  0  0  0  0  0  0  0  0
   -4.7783   -7.2836  -23.8747 C   0  0  0  0  0  0  0  0  0  0  0  0
   -4.9320   -6.6837  -22.6331 C   0  0  0  0  0  0  0  0  0  0  0  0
   -6.0263   -5.9291  -22.4050 N   0  0  0  0  0  0  0  0  0  0  0  0
  1  2  2  0  0  0  0
  2  3  1  0  0  0  0
  3  4  2  0  0  0  0
  4  5  1  0  0  0  0
  5  6  2  0  0  0  0
  6  7  1  0  0  0  0
  6  8  1  0  0  0  0
  8  9  2  0  0  0  0
  3  9  1  0  0  0  0
  9 10  1  0  0  0  0
 10 11  1  0  0  0  0
 10 13  1  0  0  0  0
 11 12  1  0  0  0  0
 12 28  1  0  0  0  0
  2 12  1  0  0  0  0
 28 29  1  0  0  0  0
 29 30  1  0  0  0  0
 30 31  1  0  0  0  0
 30 36  1  0  0  0  0
 31 32  1  0  0  0  0
 32 33  1  0  0  0  0
 33 34  1  0  0  0  0
 34 35  1  0  0  0  0
 30 35  1  0  0  0  0
 13 14  2  0  0  0  0
 13 15  1  0  0  0  0
 15 18  1  0  0  0  0
 15 16  1  0  0  0  0
 18 19  2  0  0  0  0
 19 20  1  0  0  0  0
 20 21  2  0  0  0  0
 21 22  1  0  0  0  0
 22 23  2  0  0  0  0
 23 24  1  0  0  0  0
 24 25  2  0  0  0  0
 25 26  1  0  0  0  0
 26 27  2  0  0  0  0
 18 27  1  0  0  0  0
 22 27  1  0  0  0  0
 16 17  1  0  0  0  0
 17 37  1  0  0  0  0
 10 17  1  0  0  0  0
 37 38  1  0  0  0  0
 38 40  1  0  0  0  0
 38 39  1  0  0  0  0
 40 41  2  0  0  0  0
 41 42  1  0  0  0  0
 42 43  2  0  0  0  0
 43 44  1  0  0  0  0
 44 45  2  0  0  0  0
 40 45  1  0  0  0  0
M  END
$$$$
Mol_14
  PyMOL2.5          3D                             0

 43 48  0  0  0  0  0  0  0  0999 V2000
   -5.9182   -1.3973  -21.4863 N   0  0  0  0  0  0  0  0  0  0  0  0
   -5.3725   -1.9384  -22.6893 C   0  0  0  0  0  0  0  0  0  0  0  0
   -6.3124   -2.4865  -23.6841 C   0  0  0  0  0  0  0  0  0  0  0  0
   -5.9591   -3.9147  -24.0673 C   0  0  0  0  0  0  0  0  0  0  0  0
   -6.0514   -4.9383  -23.3493 O   0  0  0  0  0  0  0  0  0  0  0  0
   -5.4856   -3.9088  -25.4289 N   0  0  0  0  0  0  0  0  0  0  0  0
   -5.0326   -2.5165  -25.6137 C   0  0  0  0  0  0  0  0  0  0  0  0
   -6.2956   -1.8535  -25.0297 C   0  0  0  0  0  0  0  0  0  0  0  0
   -7.7364   -2.5588  -23.2509 C   0  0  0  0  0  0  0  0  0  0  0  0
   -8.6850   -3.1691  -24.0692 C   0  0  0  0  0  0  0  0  0  0  0  0
  -10.0253   -3.2336  -23.7080 C   0  0  0  0  0  0  0  0  0  0  0  0
  -11.1971   -4.0101  -24.7689 Cl  0  0  0  0  0  0  0  0  0  0  0  0
  -10.4639   -2.6912  -22.5151 C   0  0  0  0  0  0  0  0  0  0  0  0
   -9.5432   -2.0861  -21.6950 C   0  0  0  0  0  0  0  0  0  0  0  0
   -8.2098   -2.0321  -22.0725 C   0  0  0  0  0  0  0  0  0  0  0  0
   -7.2928   -1.4169  -21.1286 C   0  0  0  0  0  0  0  0  0  0  0  0
   -7.7207   -0.9298  -20.0485 O   0  0  0  0  0  0  0  0  0  0  0  0
   -5.4703   -4.9674  -26.3664 C   0  0  0  0  0  0  0  0  0  0  0  0
   -4.2233   -5.5616  -26.6019 C   0  0  0  0  0  0  0  0  0  0  0  0
   -4.0782   -6.5785  -27.4714 N   0  0  0  0  0  0  0  0  0  0  0  0
   -5.1343   -7.0596  -28.1476 C   0  0  0  0  0  0  0  0  0  0  0  0
   -6.3639   -6.4801  -27.9214 C   0  0  0  0  0  0  0  0  0  0  0  0
   -7.4391   -7.0031  -28.6384 C   0  0  0  0  0  0  0  0  0  0  0  0
   -8.6919   -6.4227  -28.4153 C   0  0  0  0  0  0  0  0  0  0  0  0
   -8.8620   -5.3765  -27.5241 C   0  0  0  0  0  0  0  0  0  0  0  0
   -7.7810   -4.8626  -26.8138 C   0  0  0  0  0  0  0  0  0  0  0  0
   -6.5599   -5.4395  -27.0414 C   0  0  0  0  0  0  0  0  0  0  0  0
   -5.0229   -0.7610  -20.5127 C   0  0  0  0  0  0  0  0  0  0  0  0
   -4.6510    2.7996  -21.8977 C   0  0  0  0  0  0  0  0  0  0  0  0
   -5.3177    1.6083  -21.3591 N   0  0  0  0  0  0  0  0  0  0  0  0
   -4.4748    0.5058  -21.0654 C   0  0  0  0  0  0  0  0  0  0  0  0
   -3.2159    0.5328  -21.2547 O   0  0  0  0  0  0  0  0  0  0  0  0
   -6.2904    1.5762  -21.2106 H   0  0  0  0  0  0  0  0  0  0  0  0
   -6.2555   -0.3852  -25.1321 C   0  0  0  0  0  0  0  0  0  0  0  0
   -7.6059    0.0346  -25.5547 N   0  0  0  0  0  0  0  0  0  0  0  0
   -7.8370    0.0017  -26.5111 H   0  0  0  0  0  0  0  0  0  0  0  0
   -8.5798    0.4829  -24.6303 C   0  0  0  0  0  0  0  0  0  0  0  0
   -8.0950    1.2511  -23.5637 C   0  0  0  0  0  0  0  0  0  0  0  0
   -8.9772    1.7064  -22.6103 C   0  0  0  0  0  0  0  0  0  0  0  0
  -10.2815    1.4109  -22.7140 N   0  0  0  0  0  0  0  0  0  0  0  0
  -10.7470    0.6700  -23.7418 C   0  0  0  0  0  0  0  0  0  0  0  0
  -12.2090    0.3635  -23.8024 C   0  0  0  0  0  0  0  0  0  0  0  0
   -9.8896    0.2069  -24.7011 N   0  0  0  0  0  0  0  0  0  0  0  0
 29 30  1  0  0  0  0
 30 31  1  0  0  0  0
 30 33  1  0  0  0  0
 31 32  2  0  0  0  0
 28 31  1  0  0  0  0
  1 28  1  0  0  0  0
  1  2  1  0  0  0  0
  2  3  1  0  0  0  0
  3  4  1  0  0  0  0
  3  9  1  0  0  0  0
  4  5  2  0  0  0  0
  4  6  1  0  0  0  0
  6 18  1  0  0  0  0
  6  7  1  0  0  0  0
 18 19  2  0  0  0  0
 19 20  1  0  0  0  0
 20 21  2  0  0  0  0
 21 22  1  0  0  0  0
 22 23  2  0  0  0  0
 23 24  1  0  0  0  0
 24 25  2  0  0  0  0
 25 26  1  0  0  0  0
 26 27  2  0  0  0  0
 18 27  1  0  0  0  0
 22 27  1  0  0  0  0
  7  8  1  0  0  0  0
  8 34  1  0  0  0  0
  3  8  1  0  0  0  0
 34 35  1  0  0  0  0
 35 37  1  0  0  0  0
 35 36  1  0  0  0  0
 37 38  2  0  0  0  0
 38 39  1  0  0  0  0
 39 40  2  0  0  0  0
 40 41  1  0  0  0  0
 41 42  1  0  0  0  0
 41 43  2  0  0  0  0
 37 43  1  0  0  0  0
  9 10  2  0  0  0  0
 10 11  1  0  0  0  0
 11 12  1  0  0  0  0
 11 13  2  0  0  0  0
 13 14  1  0  0  0  0
 14 15  2  0  0  0  0
 15 16  1  0  0  0  0
  9 15  1  0  0  0  0
 16 17  2  0  0  0  0
  1 16  1  0  0  0  0
M  END
$$$$
Mol_15
  PyMOL2.5          3D                             0

 41 46  0  0  0  0  0  0  0  0999 V2000
  -12.1743   -2.6582  -22.6518 C   0  0  0  0  0  0  0  0  0  0  0  0
  -11.3789   -1.8237  -23.6029 C   0  0  0  0  0  0  0  0  0  0  0  0
  -11.4617   -0.3423  -23.1984 C   0  0  0  0  0  0  0  0  0  0  0  0
  -10.2912    0.2302  -23.8365 N   0  0  0  0  0  0  0  0  0  0  0  0
   -9.4377   -0.8357  -24.3055 C   0  0  0  0  0  0  0  0  0  0  0  0
   -8.5567   -0.7475  -25.1660 O   0  0  0  0  0  0  0  0  0  0  0  0
   -9.8878   -2.0318  -23.5018 C   0  0  0  0  0  0  0  0  0  0  0  0
   -9.4391   -1.7474  -22.0849 C   0  0  0  0  0  0  0  0  0  0  0  0
   -8.0365   -2.1029  -22.0085 N   0  0  0  0  0  0  0  0  0  0  0  0
   -7.5448   -3.3355  -22.5197 C   0  0  0  0  0  0  0  0  0  0  0  0
   -6.4953   -3.8571  -22.0393 O   0  0  0  0  0  0  0  0  0  0  0  0
   -8.2866   -3.9662  -23.6041 C   0  0  0  0  0  0  0  0  0  0  0  0
   -7.8543   -5.1551  -24.1255 C   0  0  0  0  0  0  0  0  0  0  0  0
   -8.5366   -5.7611  -25.1360 C   0  0  0  0  0  0  0  0  0  0  0  0
   -9.6717   -5.1393  -25.6133 C   0  0  0  0  0  0  0  0  0  0  0  0
  -10.5714   -5.9113  -26.9249 Cl  0  0  0  0  0  0  0  0  0  0  0  0
  -10.1103   -3.9263  -25.0794 C   0  0  0  0  0  0  0  0  0  0  0  0
   -9.4215   -3.2989  -24.0477 C   0  0  0  0  0  0  0  0  0  0  0  0
  -10.0711    1.6270  -23.9562 C   0  0  0  0  0  0  0  0  0  0  0  0
   -8.8208    2.1901  -24.1192 C   0  0  0  0  0  0  0  0  0  0  0  0
   -8.7222    3.5073  -24.2203 N   0  0  0  0  0  0  0  0  0  0  0  0
   -9.7926    4.2858  -24.1681 C   0  0  0  0  0  0  0  0  0  0  0  0
  -11.0744    3.7963  -24.0071 C   0  0  0  0  0  0  0  0  0  0  0  0
  -12.1910    4.6049  -23.9522 C   0  0  0  0  0  0  0  0  0  0  0  0
  -13.4581    4.0385  -23.7870 C   0  0  0  0  0  0  0  0  0  0  0  0
  -13.5912    2.6510  -23.6777 C   0  0  0  0  0  0  0  0  0  0  0  0
  -12.4502    1.8776  -23.7375 C   0  0  0  0  0  0  0  0  0  0  0  0
  -11.2092    2.4311  -23.8992 C   0  0  0  0  0  0  0  0  0  0  0  0
   -7.0759   -1.2065  -21.3930 C   0  0  0  0  0  0  0  0  0  0  0  0
   -6.5900   -0.1365  -22.2809 C   0  0  0  0  0  0  0  0  0  0  0  0
   -5.3278    0.4586  -21.9789 N   0  3  0  0  0  0  0  0  0  0  0  0
   -5.0349    0.1689  -20.5829 C   0  0  0  0  0  0  0  0  0  0  0  0
   -3.8771    0.9867  -20.1144 C   0  0  0  0  0  0  0  0  0  0  0  0
   -2.7493    0.8120  -20.9729 N   0  0  0  0  0  0  0  0  0  0  0  0
   -3.0215    0.7967  -22.3717 C   0  0  0  0  0  0  0  0  0  0  0  0
   -4.2199   -0.0991  -22.7160 C   0  0  0  0  0  0  0  0  0  0  0  0
   -5.4118    1.4479  -22.2126 H   0  0  0  0  0  0  0  0  0  0  0  0
   -1.4604    1.8926  -20.6752 S   0  0  0  0  0  0  0  0  0  0  0  0
   -1.2516    3.0698  -21.9853 C   0  0  0  0  0  0  0  0  0  0  0  0
   -0.1465    1.1401  -20.5133 O   0  0  0  0  0  0  0  0  0  0  0  0
   -1.7079    2.5839  -19.3669 O   0  0  0  0  0  0  0  0  0  0  0  0
  1  2  1  0  0  0  0
  2  3  1  0  0  0  0
  3  4  1  0  0  0  0
  4 19  1  0  0  0  0
  4  5  1  0  0  0  0
 19 20  2  0  0  0  0
 20 21  1  0  0  0  0
 21 22  2  0  0  0  0
 22 23  1  0  0  0  0
 23 24  2  0  0  0  0
 24 25  1  0  0  0  0
 25 26  2  0  0  0  0
 26 27  1  0  0  0  0
 27 28  2  0  0  0  0
 19 28  1  0  0  0  0
 23 28  1  0  0  0  0
  5  6  2  0  0  0  0
  5  7  1  0  0  0  0
  7  8  1  0  0  0  0
  2  7  1  0  0  0  0
  8  9  1  0  0  0  0
  9 29  1  0  0  0  0
  9 10  1  0  0  0  0
 29 30  1  0  0  0  0
 30 31  1  0  0  0  0
 31 32  1  0  0  0  0
 31 37  1  0  0  0  0
 32 33  1  0  0  0  0
 33 34  1  0  0  0  0
 34 38  1  0  0  0  0
 34 35  1  0  0  0  0
 38 39  1  0  0  0  0
 38 40  2  0  0  0  0
 38 41  2  0  0  0  0
 35 36  1  0  0  0  0
 31 36  1  0  0  0  0
 10 11  2  0  0  0  0
 10 12  1  0  0  0  0
 12 13  2  0  0  0  0
 13 14  1  0  0  0  0
 14 15  2  0  0  0  0
 15 16  1  0  0  0  0
 15 17  1  0  0  0  0
 17 18  2  0  0  0  0
 12 18  1  0  0  0  0
  7 18  1  0  0  0  0
M  END
$$$$
Mol_16
  PyMOL2.5          3D                             0

 39 44  0  0  0  0  0  0  0  0999 V2000
   -7.4157   -3.5438  -25.1003 N   0  0  0  0  0  0  0  0  0  0  0  0
   -8.5620   -3.0371  -24.3925 C   0  0  0  0  0  0  0  0  0  0  0  0
   -8.2837   -1.6823  -23.7663 C   0  0  0  0  0  0  0  0  0  0  0  0
   -7.1874   -1.7682  -22.7756 C   0  0  0  0  0  0  0  0  0  0  0  0
   -6.1309   -2.4430  -22.9443 O   0  0  0  0  0  0  0  0  0  0  0  0
   -7.4734   -1.0034  -21.6254 N   0  0  0  0  0  0  0  0  0  0  0  0
   -8.8369   -0.5556  -21.7603 C   0  0  0  0  0  0  0  0  0  0  0  0
   -9.4220   -1.1532  -22.9907 C   0  0  0  0  0  0  0  0  0  0  0  0
   -7.7884   -0.7896  -24.8462 C   0  0  0  0  0  0  0  0  0  0  0  0
   -7.9471    0.5939  -24.8004 C   0  0  0  0  0  0  0  0  0  0  0  0
   -7.4806    1.4248  -25.7974 C   0  0  0  0  0  0  0  0  0  0  0  0
   -7.7229    3.1708  -25.6626 Cl  0  0  0  0  0  0  0  0  0  0  0  0
   -6.8273    0.9134  -26.8990 C   0  0  0  0  0  0  0  0  0  0  0  0
   -6.6569   -0.4540  -26.9697 C   0  0  0  0  0  0  0  0  0  0  0  0
   -7.1263   -1.2685  -25.9706 C   0  0  0  0  0  0  0  0  0  0  0  0
   -6.8995   -2.7173  -26.1581 C   0  0  0  0  0  0  0  0  0  0  0  0
   -6.3154   -3.1980  -27.1379 O   0  0  0  0  0  0  0  0  0  0  0  0
   -6.6564   -0.6815  -20.5068 C   0  0  0  0  0  0  0  0  0  0  0  0
   -6.9143   -1.2569  -19.2770 C   0  0  0  0  0  0  0  0  0  0  0  0
   -6.1580   -0.9717  -18.1988 N   0  0  0  0  0  0  0  0  0  0  0  0
   -5.1287   -0.1185  -18.2852 C   0  0  0  0  0  0  0  0  0  0  0  0
   -4.8027    0.5022  -19.4831 C   0  0  0  0  0  0  0  0  0  0  0  0
   -3.7522    1.3812  -19.5990 C   0  0  0  0  0  0  0  0  0  0  0  0
   -3.4689    1.9676  -20.7972 C   0  0  0  0  0  0  0  0  0  0  0  0
   -4.2362    1.6870  -21.9207 C   0  0  0  0  0  0  0  0  0  0  0  0
   -5.2837    0.8006  -21.7715 C   0  0  0  0  0  0  0  0  0  0  0  0
   -5.5916    0.1942  -20.5731 C   0  0  0  0  0  0  0  0  0  0  0  0
   -6.7715   -4.8100  -24.8139 C   0  0  0  0  0  0  0  0  0  0  0  0
   -9.3629   -7.3091  -26.2165 C   0  0  0  0  0  0  0  0  0  0  0  0
   -8.4617   -6.1848  -26.1114 N   0  0  0  0  0  0  0  0  0  0  0  0
   -7.6977   -5.9591  -24.9318 C   0  0  0  0  0  0  0  0  0  0  0  0
   -7.7795   -6.7327  -23.9346 O   0  0  0  0  0  0  0  0  0  0  0  0
   -8.3744   -5.5631  -26.8698 H   0  0  0  0  0  0  0  0  0  0  0  0
  -10.2928   -2.3374  -22.5512 C   0  0  0  0  0  0  0  0  0  0  0  0
  -11.7062   -2.0389  -22.6434 N   0  0  0  0  0  0  0  0  0  0  0  0
  -12.1827   -0.9250  -23.2671 C   0  0  0  0  0  0  0  0  0  0  0  0
  -13.5599   -0.9171  -23.1943 C   0  0  0  0  0  0  0  0  0  0  0  0
  -13.8956   -2.0642  -22.5056 C   0  0  0  0  0  0  0  0  0  0  0  0
  -12.7561   -2.6944  -22.2016 N   0  0  0  0  0  0  0  0  0  0  0  0
 29 30  1  0  0  0  0
 30 31  1  0  0  0  0
 30 33  1  0  0  0  0
 31 32  2  0  0  0  0
 28 31  1  0  0  0  0
  1 28  1  0  0  0  0
  1  2  1  0  0  0  0
  2  3  1  0  0  0  0
  3  4  1  0  0  0  0
  3  9  1  0  0  0  0
  4  5  2  0  0  0  0
  4  6  1  0  0  0  0
  6 18  1  0  0  0  0
  6  7  1  0  0  0  0
 18 19  2  0  0  0  0
 19 20  1  0  0  0  0
 20 21  2  0  0  0  0
 21 22  1  0  0  0  0
 22 23  2  0  0  0  0
 23 24  1  0  0  0  0
 24 25  2  0  0  0  0
 25 26  1  0  0  0  0
 26 27  2  0  0  0  0
 18 27  1  0  0  0  0
 22 27  1  0  0  0  0
  7  8  1  0  0  0  0
  8 34  1  0  0  0  0
  3  8  1  0  0  0  0
 34 35  1  0  0  0  0
 35 36  1  0  0  0  0
 36 37  2  0  0  0  0
 37 38  1  0  0  0  0
 38 39  2  0  0  0  0
 35 39  1  0  0  0  0
  9 10  2  0  0  0  0
 10 11  1  0  0  0  0
 11 12  1  0  0  0  0
 11 13  2  0  0  0  0
 13 14  1  0  0  0  0
 14 15  2  0  0  0  0
 15 16  1  0  0  0  0
  9 15  1  0  0  0  0
 16 17  2  0  0  0  0
  1 16  1  0  0  0  0
M  END
$$$$
Mol_17
  PyMOL2.5          3D                             0

 39 44  0  0  0  0  0  0  0  0999 V2000
   -8.5321    1.0128  -24.3078 N   0  0  0  0  0  0  0  0  0  0  0  0
   -8.1600   -0.4092  -24.3894 C   0  0  0  0  0  0  0  0  0  0  0  0
   -8.7830   -1.0803  -23.2122 C   0  0  0  0  0  0  0  0  0  0  0  0
   -8.2927   -0.3322  -21.9953 C   0  0  0  0  0  0  0  0  0  0  0  0
   -8.8812    0.5940  -21.3774 O   0  0  0  0  0  0  0  0  0  0  0  0
   -7.0150   -0.9024  -21.6950 N   0  0  0  0  0  0  0  0  0  0  0  0
   -6.8367   -2.1331  -22.4407 C   0  0  0  0  0  0  0  0  0  0  0  0
   -8.2551   -2.4542  -22.9499 C   0  0  0  0  0  0  0  0  0  0  0  0
  -10.2303   -0.9310  -23.2454 C   0  0  0  0  0  0  0  0  0  0  0  0
  -11.1308   -1.8568  -22.7572 C   0  0  0  0  0  0  0  0  0  0  0  0
  -12.5094   -1.6508  -22.8039 C   0  0  0  0  0  0  0  0  0  0  0  0
  -13.6038   -2.8567  -22.1710 Cl  0  0  0  0  0  0  0  0  0  0  0  0
  -13.0378   -0.5026  -23.3449 C   0  0  0  0  0  0  0  0  0  0  0  0
  -12.1556    0.4282  -23.8352 C   0  0  0  0  0  0  0  0  0  0  0  0
  -10.8041    0.2244  -23.7888 C   0  0  0  0  0  0  0  0  0  0  0  0
   -9.9458    1.2596  -24.3504 C   0  0  0  0  0  0  0  0  0  0  0  0
  -10.3706    2.3281  -24.8558 O   0  0  0  0  0  0  0  0  0  0  0  0
   -6.0385   -0.3848  -20.8123 C   0  0  0  0  0  0  0  0  0  0  0  0
   -6.1241   -0.4561  -19.4386 C   0  0  0  0  0  0  0  0  0  0  0  0
   -5.1676    0.0516  -18.6284 N   0  0  0  0  0  0  0  0  0  0  0  0
   -4.0714    0.6587  -19.1085 C   0  0  0  0  0  0  0  0  0  0  0  0
   -3.9564    0.7461  -20.4828 C   0  0  0  0  0  0  0  0  0  0  0  0
   -2.8246    1.3728  -20.9713 C   0  0  0  0  0  0  0  0  0  0  0  0
   -2.6474    1.4940  -22.3344 C   0  0  0  0  0  0  0  0  0  0  0  0
   -3.5982    0.9905  -23.2029 C   0  0  0  0  0  0  0  0  0  0  0  0
   -4.7365    0.3600  -22.6998 C   0  0  0  0  0  0  0  0  0  0  0  0
   -4.9245    0.2329  -21.3381 C   0  0  0  0  0  0  0  0  0  0  0  0
   -7.5779    2.0687  -24.2033 C   0  0  0  0  0  0  0  0  0  0  0  0
   -7.1960    3.8968  -27.5798 C   0  0  0  0  0  0  0  0  0  0  0  0
   -7.6664    3.4476  -26.2844 N   0  0  0  0  0  0  0  0  0  0  0  0
   -7.0056    2.4495  -25.5165 C   0  0  0  0  0  0  0  0  0  0  0  0
   -5.9585    1.9309  -25.9883 O   0  0  0  0  0  0  0  0  0  0  0  0
   -8.4847    3.8540  -25.9176 H   0  0  0  0  0  0  0  0  0  0  0  0
   -8.0498   -3.2828  -24.1903 C   0  0  0  0  0  0  0  0  0  0  0  0
   -7.3743   -4.4992  -23.7782 N   0  0  0  0  0  0  0  0  0  0  0  0
   -7.7311   -5.3899  -22.8673 N   0  0  0  0  0  0  0  0  0  0  0  0
   -6.8061   -6.3743  -22.8046 C   0  0  0  0  0  0  0  0  0  0  0  0
   -5.8712   -6.0542  -23.7092 N   0  0  0  0  0  0  0  0  0  0  0  0
   -6.2297   -4.9217  -24.2863 N   0  0  0  0  0  0  0  0  0  0  0  0
 29 30  1  0  0  0  0
 30 31  1  0  0  0  0
 30 33  1  0  0  0  0
 31 32  2  0  0  0  0
 28 31  1  0  0  0  0
  1 28  1  0  0  0  0
  1  2  1  0  0  0  0
  2  3  1  0  0  0  0
  3  4  1  0  0  0  0
  3  9  1  0  0  0  0
  4  5  2  0  0  0  0
  4  6  1  0  0  0  0
  6 18  1  0  0  0  0
  6  7  1  0  0  0  0
 18 19  2  0  0  0  0
 19 20  1  0  0  0  0
 20 21  2  0  0  0  0
 21 22  1  0  0  0  0
 22 23  2  0  0  0  0
 23 24  1  0  0  0  0
 24 25  2  0  0  0  0
 25 26  1  0  0  0  0
 26 27  2  0  0  0  0
 18 27  1  0  0  0  0
 22 27  1  0  0  0  0
  7  8  1  0  0  0  0
  8 34  1  0  0  0  0
  3  8  1  0  0  0  0
 34 35  1  0  0  0  0
 35 36  1  0  0  0  0
 36 37  2  0  0  0  0
 37 38  1  0  0  0  0
 38 39  2  0  0  0  0
 35 39  1  0  0  0  0
  9 10  2  0  0  0  0
 10 11  1  0  0  0  0
 11 12  1  0  0  0  0
 11 13  2  0  0  0  0
 13 14  1  0  0  0  0
 14 15  2  0  0  0  0
 15 16  1  0  0  0  0
  9 15  1  0  0  0  0
 16 17  2  0  0  0  0
  1 16  1  0  0  0  0
M  END
$$$$
Mol_18
  PyMOL2.5          3D                             0

 22 25  0  0  0  0  0  0  0  0999 V2000
  -10.6361   -4.1594  -25.0044 C   0  0  0  0  0  0  0  0  0  0  0  0
  -10.0586   -3.3730  -23.8323 C   0  0  0  0  0  0  0  0  0  0  0  0
  -10.7795   -2.0675  -23.7320 C   0  0  0  0  0  0  0  0  0  0  0  0
   -9.8668   -0.8846  -23.9816 C   0  0  0  0  0  0  0  0  0  0  0  0
   -8.7739   -1.0350  -22.9544 C   0  0  0  0  0  0  0  0  0  0  0  0
   -8.2664   -0.2513  -21.9563 C   0  0  0  0  0  0  0  0  0  0  0  0
   -8.6999    1.0072  -21.6316 O   0  5  0  0  0  0  0  0  0  0  0  0
   -7.2747   -0.9910  -21.3927 N   0  0  0  0  0  0  0  0  0  0  0  0
   -7.1993   -2.1878  -22.0464 C   0  0  0  0  0  0  0  0  0  0  0  0
   -6.3958   -3.1187  -21.7923 O   0  0  0  0  0  0  0  0  0  0  0  0
   -8.1149   -2.2278  -23.0082 N   0  0  0  0  0  0  0  0  0  0  0  0
   -8.5605   -3.1537  -24.0300 C   0  0  0  0  0  0  0  0  0  0  0  0
   -6.4553   -0.5636  -20.2927 C   0  0  0  0  0  0  0  0  0  0  0  0
   -6.8331   -0.9061  -19.0046 C   0  0  0  0  0  0  0  0  0  0  0  0
   -6.0701   -0.5089  -17.9701 N   0  0  0  0  0  0  0  0  0  0  0  0
   -4.9426    0.2128  -18.1063 C   0  0  0  0  0  0  0  0  0  0  0  0
   -4.5715    0.5513  -19.3968 C   0  0  0  0  0  0  0  0  0  0  0  0
   -3.4045    1.3001  -19.5594 C   0  0  0  0  0  0  0  0  0  0  0  0
   -3.0166    1.6492  -20.8520 C   0  0  0  0  0  0  0  0  0  0  0  0
   -3.7729    1.2595  -21.9257 C   0  0  0  0  0  0  0  0  0  0  0  0
   -4.9317    0.5180  -21.7888 C   0  0  0  0  0  0  0  0  0  0  0  0
   -5.3075    0.1769  -20.5028 C   0  0  0  0  0  0  0  0  0  0  0  0
  1  2  1  0  0  0  0
  2  3  1  0  0  0  0
  3  4  1  0  0  0  0
  4  5  1  0  0  0  0
  5  6  2  0  0  0  0
  6  7  1  0  0  0  0
  6  8  1  0  0  0  0
  8 13  1  0  0  0  0
  8  9  1  0  0  0  0
 13 14  2  0  0  0  0
 14 15  1  0  0  0  0
 15 16  2  0  0  0  0
 16 17  1  0  0  0  0
 17 18  2  0  0  0  0
 18 19  1  0  0  0  0
 19 20  2  0  0  0  0
 20 21  1  0  0  0  0
 21 22  2  0  0  0  0
 13 22  1  0  0  0  0
 17 22  1  0  0  0  0
  9 10  2  0  0  0  0
  9 11  1  0  0  0  0
 11 12  1  0  0  0  0
  5 11  1  0  0  0  0
  2 12  1  0  0  0  0
M  END
$$$$
Mol_19
  PyMOL2.5          3D                             0

 35 40  0  0  0  0  0  0  0  0999 V2000
   -5.5210   -1.9137  -21.3088 C   0  0  0  0  0  0  0  0  0  0  0  0
   -6.8400   -2.5453  -21.6089 C   0  0  0  0  0  0  0  0  0  0  0  0
   -7.9124   -1.4723  -21.8575 C   0  0  0  0  0  0  0  0  0  0  0  0
   -8.9442   -2.2214  -22.5460 N   0  0  0  0  0  0  0  0  0  0  0  0
   -8.4156   -3.4858  -22.9901 C   0  0  0  0  0  0  0  0  0  0  0  0
   -9.0521   -4.4937  -23.3905 O   0  0  0  0  0  0  0  0  0  0  0  0
   -6.9192   -3.3267  -22.8654 C   0  0  0  0  0  0  0  0  0  0  0  0
   -6.4820   -2.6007  -24.0893 C   0  0  0  0  0  0  0  0  0  0  0  0
   -6.8765   -3.4154  -25.2515 N   0  0  0  0  0  0  0  0  0  0  0  0
   -6.3517   -4.7377  -25.2781 C   0  0  0  0  0  0  0  0  0  0  0  0
   -6.1448   -5.2848  -26.3891 O   0  0  0  0  0  0  0  0  0  0  0  0
   -6.0859   -5.3787  -23.9954 C   0  0  0  0  0  0  0  0  0  0  0  0
   -5.5673   -6.6490  -24.0003 C   0  0  0  0  0  0  0  0  0  0  0  0
   -5.2884   -7.2900  -22.8114 C   0  0  0  0  0  0  0  0  0  0  0  0
   -5.5470   -6.6147  -21.6355 C   0  0  0  0  0  0  0  0  0  0  0  0
   -5.2737   -7.2418  -20.4574 F   0  0  0  0  0  0  0  0  0  0  0  0
   -6.0758   -5.3207  -21.6504 C   0  0  0  0  0  0  0  0  0  0  0  0
   -6.3597   -4.6679  -22.8395 C   0  0  0  0  0  0  0  0  0  0  0  0
  -10.2712   -1.7606  -22.7425 C   0  0  0  0  0  0  0  0  0  0  0  0
  -11.3910   -2.5325  -22.5313 C   0  0  0  0  0  0  0  0  0  0  0  0
  -12.6267   -2.0062  -22.7453 N   0  0  0  0  0  0  0  0  0  0  0  0
  -12.7945   -0.7373  -23.1630 C   0  0  0  0  0  0  0  0  0  0  0  0
  -11.6855    0.0551  -23.3813 C   0  0  0  0  0  0  0  0  0  0  0  0
  -11.8545    1.3621  -23.8115 C   0  0  0  0  0  0  0  0  0  0  0  0
  -10.7662    2.1707  -24.0357 C   0  0  0  0  0  0  0  0  0  0  0  0
   -9.4882    1.6862  -23.8337 C   0  0  0  0  0  0  0  0  0  0  0  0
   -9.3369    0.3746  -23.4027 C   0  0  0  0  0  0  0  0  0  0  0  0
  -10.4159   -0.4493  -23.1732 C   0  0  0  0  0  0  0  0  0  0  0  0
   -7.7251   -2.8956  -26.2773 C   0  0  0  0  0  0  0  0  0  0  0  0
   -8.6434   -3.9403  -26.8031 C   0  0  0  0  0  0  0  0  0  0  0  0
   -9.6566   -4.5804  -26.0969 C   0  0  0  0  0  0  0  0  0  0  0  0
  -10.2294   -5.4527  -26.9787 C   0  0  0  0  0  0  0  0  0  0  0  0
   -9.5694   -5.3159  -28.1418 N   0  0  0  0  0  0  0  0  0  0  0  0
   -8.6200   -4.4209  -28.0627 N   0  0  0  0  0  0  0  0  0  0  0  0
   -9.7765   -5.8287  -28.9563 H   0  0  0  0  0  0  0  0  0  0  0  0
  1  2  1  0  0  0  0
  2  3  1  0  0  0  0
  3  4  1  0  0  0  0
  4 19  1  0  0  0  0
  4  5  1  0  0  0  0
 19 20  2  0  0  0  0
 20 21  1  0  0  0  0
 21 22  2  0  0  0  0
 22 23  1  0  0  0  0
 23 24  2  0  0  0  0
 24 25  1  0  0  0  0
 25 26  2  0  0  0  0
 26 27  1  0  0  0  0
 27 28  2  0  0  0  0
 19 28  1  0  0  0  0
 23 28  1  0  0  0  0
  5  6  2  0  0  0  0
  5  7  1  0  0  0  0
  7  8  1  0  0  0  0
  2  7  1  0  0  0  0
  8  9  1  0  0  0  0
  9 29  1  0  0  0  0
  9 10  1  0  0  0  0
 29 30  1  0  0  0  0
 30 31  1  0  0  0  0
 31 32  2  0  0  0  0
 32 33  1  0  0  0  0
 33 34  1  0  0  0  0
 33 35  1  0  0  0  0
 30 34  2  0  0  0  0
 10 11  2  0  0  0  0
 10 12  1  0  0  0  0
 12 13  2  0  0  0  0
 13 14  1  0  0  0  0
 14 15  2  0  0  0  0
 15 16  1  0  0  0  0
 15 17  1  0  0  0  0
 17 18  2  0  0  0  0
 12 18  1  0  0  0  0
  7 18  1  0  0  0  0
M  END
$$$$
Mol_20
  PyMOL2.5          3D                             0

 27 30  0  0  0  0  0  0  0  0999 V2000
   -8.2613   -1.6392  -20.8449 O   0  0  0  0  0  0  0  0  0  0  0  0
   -8.0020   -2.3071  -21.8798 C   0  0  0  0  0  0  0  0  0  0  0  0
   -9.0698   -2.9746  -22.6929 C   0  0  0  0  0  0  0  0  0  0  0  0
   -8.3583   -3.4391  -23.9698 C   0  0  0  0  0  0  0  0  0  0  0  0
   -7.3159   -4.4370  -23.5124 C   0  0  0  0  0  0  0  0  0  0  0  0
   -7.9093   -5.2227  -22.5217 O   0  0  0  0  0  0  0  0  0  0  0  0
   -6.1645   -3.6670  -22.9119 C   0  0  0  0  0  0  0  0  0  0  0  0
   -6.6257   -2.4315  -22.2936 N   0  0  0  0  0  0  0  0  0  0  0  0
   -8.2207   -4.6533  -21.8008 H   0  0  0  0  0  0  0  0  0  0  0  0
   -5.7409   -1.3289  -22.0846 C   0  0  0  0  0  0  0  0  0  0  0  0
   -5.2115   -0.7611  -23.2444 C   0  0  0  0  0  0  0  0  0  0  0  0
   -4.3704    0.2819  -23.1169 N   0  0  0  0  0  0  0  0  0  0  0  0
   -4.0370    0.7783  -21.9075 C   0  0  0  0  0  0  0  0  0  0  0  0
   -4.5535    0.2277  -20.7312 C   0  0  0  0  0  0  0  0  0  0  0  0
   -4.2064    0.7425  -19.5032 C   0  0  0  0  0  0  0  0  0  0  0  0
   -4.7492    0.1568  -18.3644 C   0  0  0  0  0  0  0  0  0  0  0  0
   -5.6209   -0.9238  -18.4903 C   0  0  0  0  0  0  0  0  0  0  0  0
   -5.9744   -1.4458  -19.7109 C   0  0  0  0  0  0  0  0  0  0  0  0
   -5.4251   -0.8508  -20.8299 C   0  0  0  0  0  0  0  0  0  0  0  0
  -10.1223   -1.9924  -22.9923 C   0  0  0  0  0  0  0  0  0  0  0  0
   -9.8775   -0.7582  -23.5845 C   0  0  0  0  0  0  0  0  0  0  0  0
  -10.9356    0.0943  -23.8245 C   0  0  0  0  0  0  0  0  0  0  0  0
  -12.2142   -0.2929  -23.4733 C   0  0  0  0  0  0  0  0  0  0  0  0
  -13.5625    0.7794  -23.7727 Cl  0  0  0  0  0  0  0  0  0  0  0  0
  -12.4952   -1.5095  -22.8841 C   0  0  0  0  0  0  0  0  0  0  0  0
  -14.1388   -1.9393  -22.4633 Cl  0  0  0  0  0  0  0  0  0  0  0  0
  -11.4302   -2.3498  -22.6505 C   0  0  0  0  0  0  0  0  0  0  0  0
  1  2  2  0  0  0  0
  2  3  1  0  0  0  0
  3 20  1  0  0  0  0
  3  4  1  0  0  0  0
 20 21  2  0  0  0  0
 21 22  1  0  0  0  0
 22 23  2  0  0  0  0
 23 24  1  0  0  0  0
 23 25  1  0  0  0  0
 25 26  1  0  0  0  0
 25 27  2  0  0  0  0
 20 27  1  0  0  0  0
  4  5  1  0  0  0  0
  5  6  1  0  0  0  0
  5  7  1  0  0  0  0
  6  9  1  0  0  0  0
  7  8  1  0  0  0  0
  8 10  1  0  0  0  0
  2  8  1  0  0  0  0
 10 11  2  0  0  0  0
 11 12  1  0  0  0  0
 12 13  2  0  0  0  0
 13 14  1  0  0  0  0
 14 15  2  0  0  0  0
 15 16  1  0  0  0  0
 16 17  2  0  0  0  0
 17 18  1  0  0  0  0
 18 19  2  0  0  0  0
 10 19  1  0  0  0  0
 14 19  1  0  0  0  0
M  END
$$$$
Mol_21
  PyMOL2.5          3D                             0

 40 45  0  0  0  0  0  0  0  0999 V2000
   -8.8807    1.3707  -24.3141 N   0  0  0  0  0  0  0  0  0  0  0  0
   -8.3973    0.0093  -24.4128 C   0  0  0  0  0  0  0  0  0  0  0  0
   -8.9893   -0.7863  -23.2937 C   0  0  0  0  0  0  0  0  0  0  0  0
   -8.4771   -0.1476  -22.0264 C   0  0  0  0  0  0  0  0  0  0  0  0
   -9.0072    0.8242  -21.4294 O   0  0  0  0  0  0  0  0  0  0  0  0
   -7.2934   -0.8102  -21.5971 N   0  0  0  0  0  0  0  0  0  0  0  0
   -7.0230   -1.8852  -22.5699 C   0  0  0  0  0  0  0  0  0  0  0  0
   -8.4220   -2.1624  -23.1656 C   0  0  0  0  0  0  0  0  0  0  0  0
  -10.4443   -0.6786  -23.3083 C   0  0  0  0  0  0  0  0  0  0  0  0
  -11.2952   -1.6860  -22.8319 C   0  0  0  0  0  0  0  0  0  0  0  0
  -12.6683   -1.5429  -22.8483 C   0  0  0  0  0  0  0  0  0  0  0  0
  -13.7102   -2.8379  -22.2375 Cl  0  0  0  0  0  0  0  0  0  0  0  0
  -13.2793   -0.4064  -23.3319 C   0  0  0  0  0  0  0  0  0  0  0  0
  -12.4548    0.5926  -23.8040 C   0  0  0  0  0  0  0  0  0  0  0  0
  -11.0904    0.4457  -23.7859 C   0  0  0  0  0  0  0  0  0  0  0  0
  -10.2992    1.5531  -24.3252 C   0  0  0  0  0  0  0  0  0  0  0  0
  -10.8134    2.6100  -24.7754 O   0  0  0  0  0  0  0  0  0  0  0  0
   -6.4597   -0.5824  -20.4886 C   0  0  0  0  0  0  0  0  0  0  0  0
   -6.7115   -1.3000  -19.3354 C   0  0  0  0  0  0  0  0  0  0  0  0
   -5.9342   -1.1191  -18.2310 N   0  0  0  0  0  0  0  0  0  0  0  0
   -4.9124   -0.2556  -18.2139 C   0  0  0  0  0  0  0  0  0  0  0  0
   -4.6150    0.4907  -19.3443 C   0  0  0  0  0  0  0  0  0  0  0  0
   -3.5792    1.3924  -19.3906 C   0  0  0  0  0  0  0  0  0  0  0  0
   -3.3036    2.1245  -20.5341 C   0  0  0  0  0  0  0  0  0  0  0  0
   -4.0888    1.9438  -21.6551 C   0  0  0  0  0  0  0  0  0  0  0  0
   -5.1257    1.0329  -21.5900 C   0  0  0  0  0  0  0  0  0  0  0  0
   -5.4080    0.3000  -20.4572 C   0  0  0  0  0  0  0  0  0  0  0  0
   -8.0065    2.5143  -24.2166 C   0  0  0  0  0  0  0  0  0  0  0  0
   -7.7512    3.2538  -27.9949 C   0  0  0  0  0  0  0  0  0  0  0  0
   -8.2374    3.0822  -26.6323 N   0  0  0  0  0  0  0  0  0  0  0  0
   -7.3713    2.6492  -25.5755 C   0  0  0  0  0  0  0  0  0  0  0  0
   -6.1523    2.3947  -25.7617 O   0  0  0  0  0  0  0  0  0  0  0  0
   -9.1834    3.2681  -26.4326 H   0  0  0  0  0  0  0  0  0  0  0  0
   -8.2080   -2.9058  -24.4358 C   0  0  0  0  0  0  0  0  0  0  0  0
   -8.0173   -4.3594  -24.1222 C   0  0  0  0  0  0  0  0  0  0  0  0
   -8.4351   -5.2821  -25.0833 C   0  0  0  0  0  0  0  0  0  0  0  0
   -8.2840   -6.6470  -24.8490 C   0  0  0  0  0  0  0  0  0  0  0  0
   -7.7199   -7.0773  -23.6628 C   0  0  0  0  0  0  0  0  0  0  0  0
   -7.3107   -6.1547  -22.7199 C   0  0  0  0  0  0  0  0  0  0  0  0
   -7.4534   -4.7799  -22.9354 C   0  0  0  0  0  0  0  0  0  0  0  0
 29 30  1  0  0  0  0
 30 31  1  0  0  0  0
 30 33  1  0  0  0  0
 31 32  2  0  0  0  0
 28 31  1  0  0  0  0
  1 28  1  0  0  0  0
  1  2  1  0  0  0  0
  2  3  1  0  0  0  0
  3  4  1  0  0  0  0
  3  9  1  0  0  0  0
  4  5  2  0  0  0  0
  4  6  1  0  0  0  0
  6 18  1  0  0  0  0
  6  7  1  0  0  0  0
 18 19  2  0  0  0  0
 19 20  1  0  0  0  0
 20 21  2  0  0  0  0
 21 22  1  0  0  0  0
 22 23  2  0  0  0  0
 23 24  1  0  0  0  0
 24 25  2  0  0  0  0
 25 26  1  0  0  0  0
 26 27  2  0  0  0  0
 18 27  1  0  0  0  0
 22 27  1  0  0  0  0
  7  8  1  0  0  0  0
  8 34  1  0  0  0  0
  3  8  1  0  0  0  0
 34 35  1  0  0  0  0
 35 36  2  0  0  0  0
 36 37  1  0  0  0  0
 37 38  2  0  0  0  0
 38 39  1  0  0  0  0
 39 40  2  0  0  0  0
 35 40  1  0  0  0  0
  9 10  2  0  0  0  0
 10 11  1  0  0  0  0
 11 12  1  0  0  0  0
 11 13  2  0  0  0  0
 13 14  1  0  0  0  0
 14 15  2  0  0  0  0
 15 16  1  0  0  0  0
  9 15  1  0  0  0  0
 16 17  2  0  0  0  0
  1 16  1  0  0  0  0
M  END
$$$$
Mol_22
  PyMOL2.5          3D                             0

 37 42  0  0  0  0  0  0  0  0999 V2000
   -5.4343   -2.3889  -24.4020 C   0  0  0  0  0  0  0  0  0  0  0  0
   -6.5427   -3.3784  -24.5249 C   0  0  0  0  0  0  0  0  0  0  0  0
   -7.7400   -2.8031  -23.8196 C   0  0  0  0  0  0  0  0  0  0  0  0
   -8.3344   -1.9173  -24.7889 N   0  0  0  0  0  0  0  0  0  0  0  0
   -7.8566   -2.2722  -26.0771 C   0  0  0  0  0  0  0  0  0  0  0  0
   -8.1176   -1.6447  -27.1284 O   0  0  0  0  0  0  0  0  0  0  0  0
   -7.0168   -3.4864  -25.9520 C   0  0  0  0  0  0  0  0  0  0  0  0
   -5.9081   -3.5493  -26.9389 C   0  0  0  0  0  0  0  0  0  0  0  0
   -5.2235   -4.8182  -26.8237 N   0  0  0  0  0  0  0  0  0  0  0  0
   -6.0073   -6.0084  -26.9601 C   0  0  0  0  0  0  0  0  0  0  0  0
   -5.4953   -7.0990  -27.3784 O   0  0  0  0  0  0  0  0  0  0  0  0
   -7.4136   -5.8990  -26.5947 C   0  0  0  0  0  0  0  0  0  0  0  0
   -8.1949   -7.0163  -26.7541 C   0  0  0  0  0  0  0  0  0  0  0  0
   -9.5408   -6.9525  -26.4583 C   0  0  0  0  0  0  0  0  0  0  0  0
  -10.0625   -5.7577  -26.0085 C   0  0  0  0  0  0  0  0  0  0  0  0
  -11.3887   -5.6859  -25.7153 F   0  0  0  0  0  0  0  0  0  0  0  0
   -9.2543   -4.6517  -25.8573 C   0  0  0  0  0  0  0  0  0  0  0  0
   -7.8876   -4.6841  -26.1472 C   0  0  0  0  0  0  0  0  0  0  0  0
   -9.2609   -0.8874  -24.4201 C   0  0  0  0  0  0  0  0  0  0  0  0
   -8.9628    0.4644  -24.6125 C   0  0  0  0  0  0  0  0  0  0  0  0
   -9.8228    1.4422  -24.2665 N   0  0  0  0  0  0  0  0  0  0  0  0
  -11.0168    1.1728  -23.7165 C   0  0  0  0  0  0  0  0  0  0  0  0
  -11.3789   -0.1372  -23.4969 C   0  0  0  0  0  0  0  0  0  0  0  0
  -12.6037   -0.4034  -22.9306 C   0  0  0  0  0  0  0  0  0  0  0  0
  -12.9942   -1.7095  -22.6953 C   0  0  0  0  0  0  0  0  0  0  0  0
  -12.1204   -2.6990  -23.0466 C   0  0  0  0  0  0  0  0  0  0  0  0
  -10.9069   -2.4336  -23.6078 C   0  0  0  0  0  0  0  0  0  0  0  0
  -10.4879   -1.1483  -23.8553 C   0  0  0  0  0  0  0  0  0  0  0  0
   -3.7994   -4.9493  -26.5950 C   0  0  0  0  0  0  0  0  0  0  0  0
   -3.5275   -5.8694  -25.4585 C   0  0  0  0  0  0  0  0  0  0  0  0
   -2.4687   -6.5773  -25.3992 O   0  0  0  0  0  0  0  0  0  0  0  0
   -4.5192   -5.9236  -24.4247 N   0  0  0  0  0  0  0  0  0  0  0  0
   -5.3325   -5.3719  -24.4822 H   0  0  0  0  0  0  0  0  0  0  0  0
   -4.3039   -6.8076  -23.2887 C   0  0  0  0  0  0  0  0  0  0  0  0
   -5.6077   -7.4803  -22.9696 C   0  0  0  0  0  0  0  0  0  0  0  0
   -6.2244   -7.0173  -21.6617 C   0  0  0  0  0  0  0  0  0  0  0  0
   -6.8536   -6.6765  -22.9982 C   0  0  0  0  0  0  0  0  0  0  0  0
  1  2  1  0  0  0  0
  2  3  1  0  0  0  0
  3  4  1  0  0  0  0
  4 19  1  0  0  0  0
  4  5  1  0  0  0  0
 19 20  2  0  0  0  0
 20 21  1  0  0  0  0
 21 22  2  0  0  0  0
 22 23  1  0  0  0  0
 23 24  2  0  0  0  0
 24 25  1  0  0  0  0
 25 26  2  0  0  0  0
 26 27  1  0  0  0  0
 27 28  2  0  0  0  0
 19 28  1  0  0  0  0
 23 28  1  0  0  0  0
  5  6  2  0  0  0  0
  5  7  1  0  0  0  0
  7  8  1  0  0  0  0
  2  7  1  0  0  0  0
  8  9  1  0  0  0  0
  9 29  1  0  0  0  0
  9 10  1  0  0  0  0
 29 30  1  0  0  0  0
 30 31  2  0  0  0  0
 30 32  1  0  0  0  0
 32 34  1  0  0  0  0
 32 33  1  0  0  0  0
 34 35  1  0  0  0  0
 35 36  1  0  0  0  0
 36 37  1  0  0  0  0
 35 37  1  0  0  0  0
 10 11  2  0  0  0  0
 10 12  1  0  0  0  0
 12 13  2  0  0  0  0
 13 14  1  0  0  0  0
 14 15  2  0  0  0  0
 15 16  1  0  0  0  0
 15 17  1  0  0  0  0
 17 18  2  0  0  0  0
 12 18  1  0  0  0  0
  7 18  1  0  0  0  0
M  END
$$$$
Mol_23
  PyMOL2.5          3D                             0

 27 31  0  0  0  0  0  0  0  0999 V2000
   -7.2305   -4.3677  -22.6837 O   0  0  0  0  0  0  0  0  0  0  0  0
   -7.4782   -3.2093  -23.1266 C   0  0  0  0  0  0  0  0  0  0  0  0
   -7.7259   -2.0164  -22.3536 N   0  0  0  0  0  0  0  0  0  0  0  0
   -8.4407   -1.1342  -23.2212 C   0  0  0  0  0  0  0  0  0  0  0  0
   -8.2580    0.3303  -22.8973 C   0  0  0  0  0  0  0  0  0  0  0  0
   -9.0314    1.1487  -23.8874 C   0  0  0  0  0  0  0  0  0  0  0  0
  -10.2345    0.5536  -24.3206 O   0  0  0  0  0  0  0  0  0  0  0  0
  -10.7849   -0.5622  -23.7021 C   0  0  0  0  0  0  0  0  0  0  0  0
  -12.1200   -0.8212  -23.6340 C   0  0  0  0  0  0  0  0  0  0  0  0
  -12.5577   -1.9626  -22.9935 C   0  0  0  0  0  0  0  0  0  0  0  0
  -11.7029   -2.8483  -22.4220 N   0  0  0  0  0  0  0  0  0  0  0  0
  -10.3801   -2.5755  -22.4990 C   0  0  0  0  0  0  0  0  0  0  0  0
   -9.8899   -1.4491  -23.1274 C   0  0  0  0  0  0  0  0  0  0  0  0
   -7.8565   -1.4618  -24.5436 C   0  0  0  0  0  0  0  0  0  0  0  0
   -7.6371   -0.7226  -25.5382 O   0  0  0  0  0  0  0  0  0  0  0  0
   -7.5619   -2.8534  -24.5019 N   0  0  0  0  0  0  0  0  0  0  0  0
   -7.4579   -1.8456  -21.4218 H   0  0  0  0  0  0  0  0  0  0  0  0
   -7.3746   -3.7699  -25.5735 C   0  0  0  0  0  0  0  0  0  0  0  0
   -6.0975   -3.7849  -26.1397 C   0  0  0  0  0  0  0  0  0  0  0  0
   -5.8507   -4.6221  -27.1512 N   0  0  0  0  0  0  0  0  0  0  0  0
   -6.8005   -5.4544  -27.6419 C   0  0  0  0  0  0  0  0  0  0  0  0
   -8.0871   -5.4574  -27.0911 C   0  0  0  0  0  0  0  0  0  0  0  0
   -9.0748   -6.3042  -27.5813 C   0  0  0  0  0  0  0  0  0  0  0  0
  -10.3341   -6.2728  -27.0052 C   0  0  0  0  0  0  0  0  0  0  0  0
  -10.5866   -5.3971  -25.9496 C   0  0  0  0  0  0  0  0  0  0  0  0
   -9.6107   -4.5555  -25.4599 C   0  0  0  0  0  0  0  0  0  0  0  0
   -8.3646   -4.6010  -26.0457 C   0  0  0  0  0  0  0  0  0  0  0  0
  1  2  2  0  0  0  0
  2  3  1  0  0  0  0
  3  4  1  0  0  0  0
  3 17  1  0  0  0  0
  4  5  1  0  0  0  0
  4 14  1  0  0  0  0
  5  6  1  0  0  0  0
  6  7  1  0  0  0  0
  7  8  1  0  0  0  0
  8  9  2  0  0  0  0
  9 10  1  0  0  0  0
 10 11  2  0  0  0  0
 11 12  1  0  0  0  0
 12 13  2  0  0  0  0
  4 13  1  0  0  0  0
  8 13  1  0  0  0  0
 14 15  2  0  0  0  0
 14 16  1  0  0  0  0
 16 18  1  0  0  0  0
  2 16  1  0  0  0  0
 18 19  2  0  0  0  0
 19 20  1  0  0  0  0
 20 21  2  0  0  0  0
 21 22  1  0  0  0  0
 22 23  2  0  0  0  0
 23 24  1  0  0  0  0
 24 25  2  0  0  0  0
 25 26  1  0  0  0  0
 26 27  2  0  0  0  0
 18 27  1  0  0  0  0
 22 27  1  0  0  0  0
M  END
$$$$
Mol_24
  PyMOL2.5          3D                             0

 42 47  0  0  0  0  0  0  0  0999 V2000
   -6.8191   -4.0556  -22.1392 N   0  0  0  0  0  0  0  0  0  0  0  0
   -7.7594   -3.3432  -22.9541 C   0  0  0  0  0  0  0  0  0  0  0  0
   -7.6360   -1.8642  -23.0038 C   0  0  0  0  0  0  0  0  0  0  0  0
   -8.9177   -1.2114  -22.5136 C   0  0  0  0  0  0  0  0  0  0  0  0
   -9.3197   -1.3230  -21.3120 O   0  0  0  0  0  0  0  0  0  0  0  0
   -9.5448   -0.5090  -23.5396 N   0  0  0  0  0  0  0  0  0  0  0  0
   -8.5891   -0.3173  -24.6088 C   0  0  0  0  0  0  0  0  0  0  0  0
   -7.4897   -1.2938  -24.3907 C   0  0  0  0  0  0  0  0  0  0  0  0
   -6.5551   -1.2942  -22.1601 C   0  0  0  0  0  0  0  0  0  0  0  0
   -6.3934    0.0858  -22.1480 C   0  0  0  0  0  0  0  0  0  0  0  0
   -5.4063    0.6795  -21.3795 C   0  0  0  0  0  0  0  0  0  0  0  0
   -5.2374    2.4445  -21.3946 Cl  0  0  0  0  0  0  0  0  0  0  0  0
   -4.5525   -0.0571  -20.6040 C   0  0  0  0  0  0  0  0  0  0  0  0
   -4.7009   -1.4352  -20.6056 C   0  0  0  0  0  0  0  0  0  0  0  0
   -5.6943   -2.0171  -21.3803 C   0  0  0  0  0  0  0  0  0  0  0  0
   -5.8045   -3.4670  -21.3451 C   0  0  0  0  0  0  0  0  0  0  0  0
   -5.0214   -4.1792  -20.6297 O   0  0  0  0  0  0  0  0  0  0  0  0
  -10.8842   -0.0352  -23.6000 C   0  0  0  0  0  0  0  0  0  0  0  0
  -11.9769   -0.9055  -23.5194 C   0  0  0  0  0  0  0  0  0  0  0  0
  -13.2438   -0.4626  -23.5698 N   0  0  0  0  0  0  0  0  0  0  0  0
  -13.5430    0.8530  -23.7015 C   0  0  0  0  0  0  0  0  0  0  0  0
  -12.4935    1.7667  -23.7866 C   0  0  0  0  0  0  0  0  0  0  0  0
  -12.8008    3.1211  -23.9244 C   0  0  0  0  0  0  0  0  0  0  0  0
  -11.7405    4.0149  -24.0080 C   0  0  0  0  0  0  0  0  0  0  0  0
  -10.4408    3.5684  -23.9555 C   0  0  0  0  0  0  0  0  0  0  0  0
  -10.1382    2.2156  -23.8190 C   0  0  0  0  0  0  0  0  0  0  0  0
  -11.1846    1.3230  -23.7356 C   0  0  0  0  0  0  0  0  0  0  0  0
   -6.9527   -5.5269  -22.1490 C   0  0  0  0  0  0  0  0  0  0  0  0
   -4.7914   -6.4218  -25.2175 C   0  0  0  0  0  0  0  0  0  0  0  0
   -5.1853   -5.9027  -23.9240 N   0  0  0  0  0  0  0  0  0  0  0  0
   -6.5221   -6.0525  -23.4726 C   0  0  0  0  0  0  0  0  0  0  0  0
   -7.3928   -6.6337  -24.1718 O   0  0  0  0  0  0  0  0  0  0  0  0
   -4.5238   -5.4448  -23.3565 H   0  0  0  0  0  0  0  0  0  0  0  0
   -7.5370   -2.3263  -25.4931 C   0  0  0  0  0  0  0  0  0  0  0  0
   -8.9590   -2.4328  -25.8787 N   0  0  0  0  0  0  0  0  0  0  0  0
   -9.5725   -1.6630  -25.8642 H   0  0  0  0  0  0  0  0  0  0  0  0
   -9.3736   -3.7411  -26.2744 C   0  0  0  0  0  0  0  0  0  0  0  0
  -10.2286   -4.4955  -25.5086 C   0  0  0  0  0  0  0  0  0  0  0  0
  -10.6613   -5.7562  -25.8394 C   0  0  0  0  0  0  0  0  0  0  0  0
  -10.2080   -6.3036  -27.0197 C   0  0  0  0  0  0  0  0  0  0  0  0
   -9.3345   -5.5691  -27.8309 C   0  0  0  0  0  0  0  0  0  0  0  0
   -8.9207   -4.3109  -27.4714 C   0  0  0  0  0  0  0  0  0  0  0  0
 29 30  1  0  0  0  0
 30 31  1  0  0  0  0
 30 33  1  0  0  0  0
 31 32  2  0  0  0  0
 28 31  1  0  0  0  0
  1 28  1  0  0  0  0
  1  2  1  0  0  0  0
  2  3  1  0  0  0  0
  3  4  1  0  0  0  0
  3  9  1  0  0  0  0
  4  5  2  0  0  0  0
  4  6  1  0  0  0  0
  6 18  1  0  0  0  0
  6  7  1  0  0  0  0
 18 19  2  0  0  0  0
 19 20  1  0  0  0  0
 20 21  2  0  0  0  0
 21 22  1  0  0  0  0
 22 23  2  0  0  0  0
 23 24  1  0  0  0  0
 24 25  2  0  0  0  0
 25 26  1  0  0  0  0
 26 27  2  0  0  0  0
 18 27  1  0  0  0  0
 22 27  1  0  0  0  0
  7  8  1  0  0  0  0
  8 34  1  0  0  0  0
  3  8  1  0  0  0  0
 34 35  1  0  0  0  0
 35 37  1  0  0  0  0
 35 36  1  0  0  0  0
 37 38  2  0  0  0  0
 38 39  1  0  0  0  0
 39 40  2  0  0  0  0
 40 41  1  0  0  0  0
 41 42  2  0  0  0  0
 37 42  1  0  0  0  0
  9 10  2  0  0  0  0
 10 11  1  0  0  0  0
 11 12  1  0  0  0  0
 11 13  2  0  0  0  0
 13 14  1  0  0  0  0
 14 15  2  0  0  0  0
 15 16  1  0  0  0  0
  9 15  1  0  0  0  0
 16 17  2  0  0  0  0
  1 16  1  0  0  0  0
M  END
$$$$
Mol_25
  PyMOL2.5          3D                             0

 38 43  0  0  0  0  0  0  0  0999 V2000
   -6.4106   -1.7283  -20.8581 N   0  3  0  0  0  0  0  0  0  0  0  0
   -6.3900   -0.7783  -19.7524 C   0  0  0  0  0  0  0  0  0  0  0  0
   -5.3371    0.2321  -20.1366 C   0  0  0  0  0  0  0  0  0  0  0  0
   -4.4183    0.6915  -19.2165 C   0  0  0  0  0  0  0  0  0  0  0  0
   -3.4635    1.6124  -19.5946 C   0  0  0  0  0  0  0  0  0  0  0  0
   -3.4645    2.0469  -20.9037 C   0  0  0  0  0  0  0  0  0  0  0  0
   -2.2380    3.2271  -21.3811 Cl  0  0  0  0  0  0  0  0  0  0  0  0
   -4.3974    1.5745  -21.8197 C   0  0  0  0  0  0  0  0  0  0  0  0
   -5.3693    0.6426  -21.4517 C   0  0  0  0  0  0  0  0  0  0  0  0
   -6.3381    0.1734  -22.4533 C   0  0  0  0  0  0  0  0  0  0  0  0
   -5.8729    0.3089  -23.8583 C   0  0  0  0  0  0  0  0  0  0  0  0
   -6.4429    1.5673  -24.4029 C   0  0  0  0  0  0  0  0  0  0  0  0
   -7.1747    2.1920  -23.3215 N   0  0  0  0  0  0  0  0  0  0  0  0
   -7.4840    1.1537  -22.4034 C   0  0  0  0  0  0  0  0  0  0  0  0
   -8.5256    1.0678  -21.6795 O   0  0  0  0  0  0  0  0  0  0  0  0
   -6.8409   -1.1826  -22.0992 C   0  0  0  0  0  0  0  0  0  0  0  0
   -7.1377   -2.4098  -20.6406 H   0  0  0  0  0  0  0  0  0  0  0  0
   -7.5414    3.5669  -23.1567 C   0  0  0  0  0  0  0  0  0  0  0  0
   -6.8368    4.4286  -22.3404 C   0  0  0  0  0  0  0  0  0  0  0  0
   -7.2300    5.7164  -22.2240 N   0  0  0  0  0  0  0  0  0  0  0  0
   -8.3086    6.1305  -22.9130 C   0  0  0  0  0  0  0  0  0  0  0  0
   -9.0440    5.3074  -23.7402 C   0  0  0  0  0  0  0  0  0  0  0  0
  -10.1353    5.7947  -24.4153 C   0  0  0  0  0  0  0  0  0  0  0  0
  -10.8604    4.9353  -25.2463 C   0  0  0  0  0  0  0  0  0  0  0  0
  -10.4559    3.6212  -25.3626 C   0  0  0  0  0  0  0  0  0  0  0  0
   -9.3561    3.1546  -24.6745 C   0  0  0  0  0  0  0  0  0  0  0  0
   -8.6464    3.9916  -23.8624 C   0  0  0  0  0  0  0  0  0  0  0  0
   -5.1529   -2.4391  -20.9443 C   0  0  0  0  0  0  0  0  0  0  0  0
   -5.2901   -4.2672  -19.4137 O   0  0  0  0  0  0  0  0  0  0  0  0
   -5.3423   -3.8962  -20.6138 C   0  0  0  0  0  0  0  0  0  0  0  0
   -5.5728   -4.7774  -21.7036 N   0  0  0  0  0  0  0  0  0  0  0  0
   -5.6025   -4.4240  -22.6220 H   0  0  0  0  0  0  0  0  0  0  0  0
   -5.7641   -6.1919  -21.4699 C   0  0  0  0  0  0  0  0  0  0  0  0
   -6.0187   -6.9362  -22.7702 C   0  0  0  0  0  0  0  0  0  0  0  0
   -7.4950   -7.2040  -22.9343 C   0  0  0  0  0  0  0  0  0  0  0  0
   -7.4362   -6.5822  -24.2940 C   0  0  0  0  0  0  0  0  0  0  0  0
   -8.4769   -5.6798  -24.5359 F   0  0  0  0  0  0  0  0  0  0  0  0
   -6.1238   -5.9343  -23.9146 C   0  0  0  0  0  0  0  0  0  0  0  0
 29 30  2  0  0  0  0
 28 30  1  0  0  0  0
 30 31  1  0  0  0  0
  1 28  1  0  0  0  0
  1  2  1  0  0  0  0
  1 17  1  0  0  0  0
  2  3  1  0  0  0  0
  3  4  2  0  0  0  0
  4  5  1  0  0  0  0
  5  6  2  0  0  0  0
  6  7  1  0  0  0  0
  6  8  1  0  0  0  0
  8  9  2  0  0  0  0
  3  9  1  0  0  0  0
  9 10  1  0  0  0  0
 10 11  1  0  0  0  0
 10 16  1  0  0  0  0
 11 12  1  0  0  0  0
 12 13  1  0  0  0  0
 13 18  1  0  0  0  0
 13 14  1  0  0  0  0
 18 19  2  0  0  0  0
 19 20  1  0  0  0  0
 20 21  2  0  0  0  0
 21 22  1  0  0  0  0
 22 23  2  0  0  0  0
 23 24  1  0  0  0  0
 24 25  2  0  0  0  0
 25 26  1  0  0  0  0
 26 27  2  0  0  0  0
 18 27  1  0  0  0  0
 22 27  1  0  0  0  0
 14 15  2  0  0  0  0
 10 14  1  0  0  0  0
  1 16  1  0  0  0  0
 31 33  1  0  0  0  0
 31 32  1  0  0  0  0
 33 34  1  0  0  0  0
 34 35  1  0  0  0  0
 35 36  1  0  0  0  0
 36 37  1  0  0  0  0
 36 38  1  0  0  0  0
 34 38  1  0  0  0  0
M  END
$$$$
Mol_26
  PyMOL2.5          3D                             0

 44 49  0  0  0  0  0  0  0  0999 V2000
   -6.8714    2.7445  -22.8763 N   0  3  0  0  0  0  0  0  0  0  0  0
   -6.7117    3.2272  -24.2440 C   0  0  0  0  0  0  0  0  0  0  0  0
   -7.9633    3.9940  -24.5218 C   0  0  0  0  0  0  0  0  0  0  0  0
   -8.7188    3.8093  -25.6575 C   0  0  0  0  0  0  0  0  0  0  0  0
   -9.8739    4.5328  -25.8687 C   0  0  0  0  0  0  0  0  0  0  0  0
  -10.2514    5.4547  -24.8981 C   0  0  0  0  0  0  0  0  0  0  0  0
  -11.7280    6.3858  -25.1581 Cl  0  0  0  0  0  0  0  0  0  0  0  0
   -9.4769    5.6227  -23.7667 C   0  0  0  0  0  0  0  0  0  0  0  0
   -8.3198    4.9145  -23.5306 C   0  0  0  0  0  0  0  0  0  0  0  0
   -7.4795    5.0907  -22.3212 C   0  0  0  0  0  0  0  0  0  0  0  0
   -6.8732    3.7942  -21.9163 C   0  0  0  0  0  0  0  0  0  0  0  0
   -6.0619    2.1855  -22.6067 H   0  0  0  0  0  0  0  0  0  0  0  0
   -6.4239    6.1252  -22.6287 C   0  0  0  0  0  0  0  0  0  0  0  0
   -6.7945    7.1092  -23.2907 O   0  0  0  0  0  0  0  0  0  0  0  0
   -5.0874    5.9654  -22.1785 N   0  0  0  0  0  0  0  0  0  0  0  0
   -4.8791    5.1550  -21.6597 H   0  0  0  0  0  0  0  0  0  0  0  0
   -4.0320    6.8738  -22.4137 C   0  0  0  0  0  0  0  0  0  0  0  0
   -3.7031    7.9253  -21.5897 C   0  0  0  0  0  0  0  0  0  0  0  0
   -2.6754    8.7790  -21.8587 N   0  0  0  0  0  0  0  0  0  0  0  0
   -1.9089    8.6595  -22.9436 C   0  0  0  0  0  0  0  0  0  0  0  0
   -2.2023    7.6135  -23.8050 C   0  0  0  0  0  0  0  0  0  0  0  0
   -1.4021    7.5061  -24.9182 C   0  0  0  0  0  0  0  0  0  0  0  0
   -1.6342    6.4936  -25.8165 C   0  0  0  0  0  0  0  0  0  0  0  0
   -2.6404    5.6026  -25.6178 C   0  0  0  0  0  0  0  0  0  0  0  0
   -3.4387    5.7349  -24.4779 C   0  0  0  0  0  0  0  0  0  0  0  0
   -3.2522    6.7246  -23.5498 C   0  0  0  0  0  0  0  0  0  0  0  0
   -8.0378    1.9083  -22.8361 C   0  0  0  0  0  0  0  0  0  0  0  0
   -7.0245   -0.1976  -22.6548 O   0  0  0  0  0  0  0  0  0  0  0  0
   -7.8250    0.5300  -23.3350 C   0  0  0  0  0  0  0  0  0  0  0  0
   -8.4378   -0.0103  -24.4850 N   0  0  0  0  0  0  0  0  0  0  0  0
   -9.0517    0.5645  -24.9968 H   0  0  0  0  0  0  0  0  0  0  0  0
   -8.2192   -1.3423  -24.9497 C   0  0  0  0  0  0  0  0  0  0  0  0
   -7.2431   -1.5310  -25.9058 C   0  0  0  0  0  0  0  0  0  0  0  0
   -6.9826   -2.7934  -26.3954 C   0  0  0  0  0  0  0  0  0  0  0  0
   -7.7334   -3.8631  -25.8951 C   0  0  0  0  0  0  0  0  0  0  0  0
   -8.7088   -3.6682  -24.9384 C   0  0  0  0  0  0  0  0  0  0  0  0
   -8.9720   -2.4042  -24.4457 C   0  0  0  0  0  0  0  0  0  0  0  0
   -7.4182   -5.1396  -26.4382 N   0  0  0  0  0  0  0  0  0  0  0  0
   -6.4948   -5.9886  -25.7008 C   0  0  0  0  0  0  0  0  0  0  0  0
   -5.7325   -6.8966  -26.6371 C   0  0  0  0  0  0  0  0  0  0  0  0
   -6.6095   -7.5562  -27.4906 O   0  0  0  0  0  0  0  0  0  0  0  0
   -7.1934   -6.6567  -28.3854 C   0  0  0  0  0  0  0  0  0  0  0  0
   -7.9677   -5.6082  -27.6618 C   0  0  0  0  0  0  0  0  0  0  0  0
   -9.0416   -5.1306  -28.0572 O   0  0  0  0  0  0  0  0  0  0  0  0
 28 29  2  0  0  0  0
 27 29  1  0  0  0  0
 29 30  1  0  0  0  0
  1 27  1  0  0  0  0
  1  2  1  0  0  0  0
  1 12  1  0  0  0  0
  2  3  1  0  0  0  0
  3  4  2  0  0  0  0
  4  5  1  0  0  0  0
  5  6  2  0  0  0  0
  6  7  1  0  0  0  0
  6  8  1  0  0  0  0
  8  9  2  0  0  0  0
  9 10  1  0  0  0  0
  3  9  1  0  0  0  0
 10 13  1  0  0  0  0
 10 11  1  0  0  0  0
 13 14  2  0  0  0  0
 13 15  1  0  0  0  0
 15 17  1  0  0  0  0
 15 16  1  0  0  0  0
 17 18  2  0  0  0  0
 18 19  1  0  0  0  0
 19 20  2  0  0  0  0
 20 21  1  0  0  0  0
 21 22  2  0  0  0  0
 22 23  1  0  0  0  0
 23 24  2  0  0  0  0
 24 25  1  0  0  0  0
 25 26  2  0  0  0  0
 17 26  1  0  0  0  0
 21 26  1  0  0  0  0
  1 11  1  0  0  0  0
 30 32  1  0  0  0  0
 30 31  1  0  0  0  0
 32 33  2  0  0  0  0
 33 34  1  0  0  0  0
 34 35  2  0  0  0  0
 35 38  1  0  0  0  0
 35 36  1  0  0  0  0
 38 39  1  0  0  0  0
 39 40  1  0  0  0  0
 40 41  1  0  0  0  0
 41 42  1  0  0  0  0
 42 43  1  0  0  0  0
 43 44  2  0  0  0  0
 38 43  1  0  0  0  0
 36 37  2  0  0  0  0
 32 37  1  0  0  0  0
M  END
$$$$
Mol_27
  PyMOL2.5          3D                             0

 35 40  0  0  0  0  0  0  0  0999 V2000
   -6.1796   -2.5663  -22.0965 C   0  0  0  0  0  0  0  0  0  0  0  0
   -7.4504   -2.3766  -22.8449 C   0  0  0  0  0  0  0  0  0  0  0  0
   -8.1811   -1.1056  -22.6071 C   0  0  0  0  0  0  0  0  0  0  0  0
   -9.1531   -1.1217  -23.7069 N   0  0  0  0  0  0  0  0  0  0  0  0
   -8.7151   -2.0218  -24.7193 C   0  0  0  0  0  0  0  0  0  0  0  0
   -9.4006   -2.3948  -25.6804 O   0  0  0  0  0  0  0  0  0  0  0  0
   -7.2981   -2.3859  -24.3545 C   0  0  0  0  0  0  0  0  0  0  0  0
   -6.4008   -1.3414  -24.8929 C   0  0  0  0  0  0  0  0  0  0  0  0
   -5.0806   -1.7630  -25.2530 N   0  0  0  0  0  0  0  0  0  0  0  0
   -4.8066   -3.1322  -25.6133 C   0  0  0  0  0  0  0  0  0  0  0  0
   -3.7112   -3.4171  -26.1593 O   0  0  0  0  0  0  0  0  0  0  0  0
   -5.7857   -4.1447  -25.3436 C   0  0  0  0  0  0  0  0  0  0  0  0
   -5.5459   -5.4592  -25.6788 C   0  0  0  0  0  0  0  0  0  0  0  0
   -6.4794   -6.4114  -25.4194 C   0  0  0  0  0  0  0  0  0  0  0  0
   -7.6731   -6.0823  -24.8211 C   0  0  0  0  0  0  0  0  0  0  0  0
   -8.5901   -7.0503  -24.5719 F   0  0  0  0  0  0  0  0  0  0  0  0
   -7.9128   -4.7480  -24.4825 C   0  0  0  0  0  0  0  0  0  0  0  0
   -6.9706   -3.7637  -24.7404 C   0  0  0  0  0  0  0  0  0  0  0  0
  -10.3344   -0.3165  -23.6727 C   0  0  0  0  0  0  0  0  0  0  0  0
  -10.2932    1.0268  -24.0277 C   0  0  0  0  0  0  0  0  0  0  0  0
  -11.4249    1.7197  -23.9747 N   0  0  0  0  0  0  0  0  0  0  0  0
  -12.5844    1.1811  -23.5982 C   0  0  0  0  0  0  0  0  0  0  0  0
  -12.6688   -0.1365  -23.2409 C   0  0  0  0  0  0  0  0  0  0  0  0
  -13.8523   -0.7397  -22.8429 C   0  0  0  0  0  0  0  0  0  0  0  0
  -13.8604   -2.0696  -22.4981 C   0  0  0  0  0  0  0  0  0  0  0  0
  -12.7179   -2.8602  -22.5282 C   0  0  0  0  0  0  0  0  0  0  0  0
  -11.5571   -2.2460  -22.9244 C   0  0  0  0  0  0  0  0  0  0  0  0
  -11.5246   -0.9077  -23.2763 C   0  0  0  0  0  0  0  0  0  0  0  0
   -3.9559   -0.8487  -25.2760 C   0  0  0  0  0  0  0  0  0  0  0  0
   -3.9552    0.1202  -24.1623 C   0  0  0  0  0  0  0  0  0  0  0  0
   -4.1319    1.4829  -24.3226 C   0  0  0  0  0  0  0  0  0  0  0  0
   -4.0758    2.0726  -23.1043 N   0  0  0  0  0  0  0  0  0  0  0  0
   -3.8739    1.1158  -22.2350 N   0  0  0  0  0  0  0  0  0  0  0  0
   -3.7968   -0.0700  -22.8397 N   0  0  0  0  0  0  0  0  0  0  0  0
   -3.7900    1.2532  -21.2637 H   0  0  0  0  0  0  0  0  0  0  0  0
  1  2  1  0  0  0  0
  2  3  1  0  0  0  0
  3  4  1  0  0  0  0
  4 19  1  0  0  0  0
  4  5  1  0  0  0  0
 19 20  2  0  0  0  0
 20 21  1  0  0  0  0
 21 22  2  0  0  0  0
 22 23  1  0  0  0  0
 23 24  2  0  0  0  0
 24 25  1  0  0  0  0
 25 26  2  0  0  0  0
 26 27  1  0  0  0  0
 27 28  2  0  0  0  0
 19 28  1  0  0  0  0
 23 28  1  0  0  0  0
  5  6  2  0  0  0  0
  5  7  1  0  0  0  0
  7  8  1  0  0  0  0
  2  7  1  0  0  0  0
  8  9  1  0  0  0  0
  9 29  1  0  0  0  0
  9 10  1  0  0  0  0
 29 30  1  0  0  0  0
 30 31  1  0  0  0  0
 31 32  2  0  0  0  0
 32 33  1  0  0  0  0
 33 34  1  0  0  0  0
 33 35  1  0  0  0  0
 30 34  2  0  0  0  0
 10 11  2  0  0  0  0
 10 12  1  0  0  0  0
 12 13  2  0  0  0  0
 13 14  1  0  0  0  0
 14 15  2  0  0  0  0
 15 16  1  0  0  0  0
 15 17  1  0  0  0  0
 17 18  2  0  0  0  0
 12 18  1  0  0  0  0
  7 18  1  0  0  0  0
M  END
$$$$
Mol_28
  PyMOL2.5          3D                             0

 34 38  0  0  0  0  0  0  0  0999 V2000
   -9.2266    1.7126  -24.2422 N   0  0  0  0  0  0  0  0  0  0  0  0
   -8.6308    0.4329  -24.5544 C   0  0  0  0  0  0  0  0  0  0  0  0
   -9.0287   -0.5482  -23.4791 C   0  0  0  0  0  0  0  0  0  0  0  0
   -8.5401    0.0148  -22.1666 C   0  0  0  0  0  0  0  0  0  0  0  0
   -9.1558    0.8635  -21.4550 O   0  0  0  0  0  0  0  0  0  0  0  0
   -7.2711   -0.5625  -21.8540 N   0  0  0  0  0  0  0  0  0  0  0  0
   -6.9137   -1.4077  -22.9754 C   0  0  0  0  0  0  0  0  0  0  0  0
   -8.2837   -1.8203  -23.5380 C   0  0  0  0  0  0  0  0  0  0  0  0
   -8.0160   -2.3403  -24.9289 C   0  0  0  0  0  0  0  0  0  0  0  0
  -10.4816   -0.6109  -23.3914 C   0  0  0  0  0  0  0  0  0  0  0  0
  -11.1684   -1.7639  -22.9871 C   0  0  0  0  0  0  0  0  0  0  0  0
  -12.5492   -1.7885  -22.8987 C   0  0  0  0  0  0  0  0  0  0  0  0
  -13.2001   -2.9289  -22.4999 F   0  0  0  0  0  0  0  0  0  0  0  0
  -13.3216   -0.6889  -23.2008 C   0  0  0  0  0  0  0  0  0  0  0  0
  -12.6571    0.4504  -23.5998 C   0  0  0  0  0  0  0  0  0  0  0  0
  -11.2886    0.4713  -23.6866 C   0  0  0  0  0  0  0  0  0  0  0  0
  -10.6659    1.7274  -24.1408 C   0  0  0  0  0  0  0  0  0  0  0  0
  -11.3413    2.7500  -24.4229 O   0  0  0  0  0  0  0  0  0  0  0  0
   -6.4784   -0.3655  -20.6722 C   0  0  0  0  0  0  0  0  0  0  0  0
   -6.8583   -1.0059  -19.5040 C   0  0  0  0  0  0  0  0  0  0  0  0
   -6.1723   -0.8757  -18.3506 N   0  0  0  0  0  0  0  0  0  0  0  0
   -5.0786   -0.0937  -18.3388 C   0  0  0  0  0  0  0  0  0  0  0  0
   -4.6621    0.5620  -19.4719 C   0  0  0  0  0  0  0  0  0  0  0  0
   -3.5327    1.3588  -19.4267 C   0  0  0  0  0  0  0  0  0  0  0  0
   -3.1313    2.0122  -20.5904 C   0  0  0  0  0  0  0  0  0  0  0  0
   -3.8312    1.8733  -21.7481 C   0  0  0  0  0  0  0  0  0  0  0  0
   -4.9479    1.0745  -21.7576 C   0  0  0  0  0  0  0  0  0  0  0  0
   -5.3681    0.4186  -20.6290 C   0  0  0  0  0  0  0  0  0  0  0  0
   -8.5148    2.9311  -24.0309 C   0  0  0  0  0  0  0  0  0  0  0  0
   -7.0304    2.8478  -24.1061 C   0  0  0  0  0  0  0  0  0  0  0  0
   -6.8024    4.2601  -22.2391 C   0  0  0  0  0  0  0  0  0  0  0  0
   -6.3406    4.0064  -23.6019 N   0  3  0  0  0  0  0  0  0  0  0  0
   -5.3352    3.8347  -23.5988 H   0  0  0  0  0  0  0  0  0  0  0  0
   -6.5332    4.8145  -24.1938 H   0  0  0  0  0  0  0  0  0  0  0  0
 31 32  1  0  0  0  0
 30 32  1  0  0  0  0
 32 33  1  0  0  0  0
 32 34  1  0  0  0  0
 29 30  1  0  0  0  0
  1 29  1  0  0  0  0
  1  2  1  0  0  0  0
  2  3  1  0  0  0  0
  3  4  1  0  0  0  0
  3 10  1  0  0  0  0
  4  5  2  0  0  0  0
  4  6  1  0  0  0  0
  6 19  1  0  0  0  0
  6  7  1  0  0  0  0
 19 20  2  0  0  0  0
 20 21  1  0  0  0  0
 21 22  2  0  0  0  0
 22 23  1  0  0  0  0
 23 24  2  0  0  0  0
 24 25  1  0  0  0  0
 25 26  2  0  0  0  0
 26 27  1  0  0  0  0
 27 28  2  0  0  0  0
 19 28  1  0  0  0  0
 23 28  1  0  0  0  0
  7  8  1  0  0  0  0
  8  9  1  0  0  0  0
  3  8  1  0  0  0  0
 10 11  2  0  0  0  0
 11 12  1  0  0  0  0
 12 13  1  0  0  0  0
 12 14  2  0  0  0  0
 14 15  1  0  0  0  0
 15 16  2  0  0  0  0
 16 17  1  0  0  0  0
 10 16  1  0  0  0  0
 17 18  2  0  0  0  0
  1 17  1  0  0  0  0
M  END
$$$$
Mol_29
  PyMOL2.5          3D                             0

 40 44  0  0  0  0  0  0  0  0999 V2000
   -5.6664   -1.4053  -25.1434 N   0  0  0  0  0  0  0  0  0  0  0  0
   -6.0052   -1.2133  -23.7565 C   0  0  0  0  0  0  0  0  0  0  0  0
   -6.9131   -2.2441  -23.1619 C   0  0  0  0  0  0  0  0  0  0  0  0
   -8.3247   -1.9135  -23.5876 C   0  0  0  0  0  0  0  0  0  0  0  0
   -9.0259   -2.4821  -24.4593 O   0  0  0  0  0  0  0  0  0  0  0  0
   -8.6904   -0.8110  -22.7808 N   0  0  0  0  0  0  0  0  0  0  0  0
   -8.0437   -0.8963  -21.5107 C   0  0  0  0  0  0  0  0  0  0  0  0
   -7.0384   -2.0531  -21.6755 C   0  0  0  0  0  0  0  0  0  0  0  0
   -6.5219   -3.5766  -23.6126 C   0  0  0  0  0  0  0  0  0  0  0  0
   -6.9023   -4.7193  -22.8956 C   0  0  0  0  0  0  0  0  0  0  0  0
   -6.5532   -5.9905  -23.3156 C   0  0  0  0  0  0  0  0  0  0  0  0
   -7.0627   -7.3994  -22.3660 Cl  0  0  0  0  0  0  0  0  0  0  0  0
   -5.8164   -6.2032  -24.4567 C   0  0  0  0  0  0  0  0  0  0  0  0
   -5.4337   -5.0917  -25.1739 C   0  0  0  0  0  0  0  0  0  0  0  0
   -5.7825   -3.8238  -24.7532 C   0  0  0  0  0  0  0  0  0  0  0  0
   -5.3157   -2.7145  -25.5840 C   0  0  0  0  0  0  0  0  0  0  0  0
   -4.6351   -2.9172  -26.6406 O   0  0  0  0  0  0  0  0  0  0  0  0
   -9.5808    0.2553  -23.1531 C   0  0  0  0  0  0  0  0  0  0  0  0
   -9.0945    1.5255  -23.4603 C   0  0  0  0  0  0  0  0  0  0  0  0
   -9.9136    2.5309  -23.8094 N   0  0  0  0  0  0  0  0  0  0  0  0
  -11.2487    2.3726  -23.8832 C   0  0  0  0  0  0  0  0  0  0  0  0
  -11.7708    1.1211  -23.5844 C   0  0  0  0  0  0  0  0  0  0  0  0
  -13.1564    0.9400  -23.6554 C   0  0  0  0  0  0  0  0  0  0  0  0
  -13.7006   -0.2876  -23.3642 C   0  0  0  0  0  0  0  0  0  0  0  0
  -12.8701   -1.3288  -23.0037 C   0  0  0  0  0  0  0  0  0  0  0  0
  -11.4987   -1.1765  -22.9256 C   0  0  0  0  0  0  0  0  0  0  0  0
  -10.9572    0.0537  -23.2186 C   0  0  0  0  0  0  0  0  0  0  0  0
   -5.6309   -0.3253  -26.1064 C   0  0  0  0  0  0  0  0  0  0  0  0
   -8.3179    2.1895  -27.0786 C   0  0  0  0  0  0  0  0  0  0  0  0
   -7.0441    1.6255  -26.6793 N   0  0  0  0  0  0  0  0  0  0  0  0
   -6.9299    0.2005  -26.5071 C   0  0  0  0  0  0  0  0  0  0  0  0
   -7.9724   -0.4584  -26.7214 O   0  0  0  0  0  0  0  0  0  0  0  0
   -6.2662    2.2096  -26.5275 H   0  0  0  0  0  0  0  0  0  0  0  0
   -5.7621   -1.5886  -21.0275 C   0  0  0  0  0  0  0  0  0  0  0  0
   -5.7736   -1.9144  -19.2930 S   0  0  0  0  0  0  0  0  0  0  0  0
   -7.2152   -1.9105  -18.7798 O   0  0  0  0  0  0  0  0  0  0  0  0
   -5.2809   -3.3378  -19.0571 O   0  0  0  0  0  0  0  0  0  0  0  0
   -4.8316   -0.9005  -18.3353 N   0  0  0  0  0  0  0  0  0  0  0  0
   -5.3541    0.3393  -17.9205 C   0  0  0  0  0  0  0  0  0  0  0  0
   -3.9793   -0.7034  -18.8599 H   0  0  0  0  0  0  0  0  0  0  0  0
 29 30  1  0  0  0  0
 30 31  1  0  0  0  0
 30 33  1  0  0  0  0
 31 32  2  0  0  0  0
 28 31  1  0  0  0  0
  1 28  1  0  0  0  0
  1  2  1  0  0  0  0
  2  3  1  0  0  0  0
  3  4  1  0  0  0  0
  3  9  1  0  0  0  0
  4  5  2  0  0  0  0
  4  6  1  0  0  0  0
  6 18  1  0  0  0  0
  6  7  1  0  0  0  0
 18 19  2  0  0  0  0
 19 20  1  0  0  0  0
 20 21  2  0  0  0  0
 21 22  1  0  0  0  0
 22 23  2  0  0  0  0
 23 24  1  0  0  0  0
 24 25  2  0  0  0  0
 25 26  1  0  0  0  0
 26 27  2  0  0  0  0
 18 27  1  0  0  0  0
 22 27  1  0  0  0  0
  7  8  1  0  0  0  0
  8 34  1  0  0  0  0
  3  8  1  0  0  0  0
 34 35  1  0  0  0  0
 35 36  2  0  0  0  0
 35 37  2  0  0  0  0
 35 38  1  0  0  0  0
 38 39  1  0  0  0  0
 38 40  1  0  0  0  0
  9 10  2  0  0  0  0
 10 11  1  0  0  0  0
 11 12  1  0  0  0  0
 11 13  2  0  0  0  0
 13 14  1  0  0  0  0
 14 15  2  0  0  0  0
 15 16  1  0  0  0  0
  9 15  1  0  0  0  0
 16 17  2  0  0  0  0
  1 16  1  0  0  0  0
M  END
$$$$
Mol_30
  PyMOL2.5          3D                             0

 35 40  0  0  0  0  0  0  0  0999 V2000
   -5.5788   -2.7964  -21.8760 C   0  0  0  0  0  0  0  0  0  0  0  0
   -6.7049   -2.8050  -22.8655 C   0  0  0  0  0  0  0  0  0  0  0  0
   -8.0573   -2.5977  -22.2165 C   0  0  0  0  0  0  0  0  0  0  0  0
   -8.9142   -2.0728  -23.2912 N   0  0  0  0  0  0  0  0  0  0  0  0
   -8.0562   -1.7980  -24.3994 C   0  0  0  0  0  0  0  0  0  0  0  0
   -8.4306   -1.7279  -25.5839 O   0  0  0  0  0  0  0  0  0  0  0  0
   -6.6833   -1.6264  -23.8169 C   0  0  0  0  0  0  0  0  0  0  0  0
   -6.7297   -0.3035  -23.1071 C   0  0  0  0  0  0  0  0  0  0  0  0
   -5.4376    0.1777  -22.6722 N   0  0  0  0  0  0  0  0  0  0  0  0
   -4.3824    0.1514  -23.6425 C   0  0  0  0  0  0  0  0  0  0  0  0
   -3.4028    0.9269  -23.5450 O   0  0  0  0  0  0  0  0  0  0  0  0
   -4.5107   -0.8231  -24.7446 C   0  0  0  0  0  0  0  0  0  0  0  0
   -3.5101   -0.8904  -25.7175 C   0  0  0  0  0  0  0  0  0  0  0  0
   -3.5934   -1.7910  -26.7674 C   0  0  0  0  0  0  0  0  0  0  0  0
   -4.6992   -2.6375  -26.8415 C   0  0  0  0  0  0  0  0  0  0  0  0
   -4.8081   -3.5402  -27.8712 F   0  0  0  0  0  0  0  0  0  0  0  0
   -5.6965   -2.5756  -25.8782 C   0  0  0  0  0  0  0  0  0  0  0  0
   -5.6204   -1.6692  -24.8146 C   0  0  0  0  0  0  0  0  0  0  0  0
  -10.3089   -1.9024  -23.1740 C   0  0  0  0  0  0  0  0  0  0  0  0
  -11.1755   -2.9665  -22.9061 C   0  0  0  0  0  0  0  0  0  0  0  0
  -12.5047   -2.7927  -22.7963 N   0  0  0  0  0  0  0  0  0  0  0  0
  -13.0361   -1.5524  -22.9473 C   0  0  0  0  0  0  0  0  0  0  0  0
  -12.2369   -0.4492  -23.2146 C   0  0  0  0  0  0  0  0  0  0  0  0
  -12.7900    0.8191  -23.3681 C   0  0  0  0  0  0  0  0  0  0  0  0
  -11.9460    1.8952  -23.6355 C   0  0  0  0  0  0  0  0  0  0  0  0
  -10.5707    1.7280  -23.7513 C   0  0  0  0  0  0  0  0  0  0  0  0
  -10.0668    0.4577  -23.5924 C   0  0  0  0  0  0  0  0  0  0  0  0
  -10.8589   -0.6456  -23.3258 C   0  0  0  0  0  0  0  0  0  0  0  0
   -5.1783    0.6666  -21.3452 C   0  0  0  0  0  0  0  0  0  0  0  0
   -5.8444   -0.1395  -20.2949 C   0  0  0  0  0  0  0  0  0  0  0  0
   -5.1332   -0.9387  -19.4056 C   0  0  0  0  0  0  0  0  0  0  0  0
   -6.0701   -1.5186  -18.5992 N   0  0  0  0  0  0  0  0  0  0  0  0
   -7.2658   -1.0985  -18.9754 N   0  0  0  0  0  0  0  0  0  0  0  0
   -7.1507   -0.2640  -19.9991 N   0  0  0  0  0  0  0  0  0  0  0  0
   -8.1161   -1.3660  -18.5573 H   0  0  0  0  0  0  0  0  0  0  0  0
  1  2  1  0  0  0  0
  2  3  1  0  0  0  0
  3  4  1  0  0  0  0
  4 19  1  0  0  0  0
  4  5  1  0  0  0  0
 19 20  2  0  0  0  0
 20 21  1  0  0  0  0
 21 22  2  0  0  0  0
 22 23  1  0  0  0  0
 23 24  2  0  0  0  0
 24 25  1  0  0  0  0
 25 26  2  0  0  0  0
 26 27  1  0  0  0  0
 27 28  2  0  0  0  0
 19 28  1  0  0  0  0
 23 28  1  0  0  0  0
  5  6  2  0  0  0  0
  5  7  1  0  0  0  0
  7  8  1  0  0  0  0
  2  7  1  0  0  0  0
  8  9  1  0  0  0  0
  9 29  1  0  0  0  0
  9 10  1  0  0  0  0
 29 30  1  0  0  0  0
 30 31  1  0  0  0  0
 31 32  2  0  0  0  0
 32 33  1  0  0  0  0
 33 34  1  0  0  0  0
 33 35  1  0  0  0  0
 30 34  2  0  0  0  0
 10 11  2  0  0  0  0
 10 12  1  0  0  0  0
 12 13  2  0  0  0  0
 13 14  1  0  0  0  0
 14 15  2  0  0  0  0
 15 16  1  0  0  0  0
 15 17  1  0  0  0  0
 17 18  2  0  0  0  0
 12 18  1  0  0  0  0
  7 18  1  0  0  0  0
M  END
$$$$
Mol_31
  PyMOL2.5          3D                             0

 37 42  0  0  0  0  0  0  0  0999 V2000
   -7.2232   -1.4017  -25.3482 C   0  0  0  0  0  0  0  0  0  0  0  0
   -7.3189   -0.2169  -24.4116 C   0  0  0  0  0  0  0  0  0  0  0  0
   -8.5169    0.5919  -24.8649 C   0  0  0  0  0  0  0  0  0  0  0  0
   -9.4144    0.6385  -23.7169 N   0  0  0  0  0  0  0  0  0  0  0  0
   -8.6183    0.3547  -22.5794 C   0  0  0  0  0  0  0  0  0  0  0  0
   -8.7773    0.8148  -21.3979 O   0  0  0  0  0  0  0  0  0  0  0  0
   -7.5228   -0.6005  -22.9849 C   0  0  0  0  0  0  0  0  0  0  0  0
   -8.1157   -1.9674  -22.8569 C   0  0  0  0  0  0  0  0  0  0  0  0
   -7.1675   -3.0022  -22.4896 N   0  0  0  0  0  0  0  0  0  0  0  0
   -6.0517   -2.7580  -21.6372 C   0  0  0  0  0  0  0  0  0  0  0  0
   -5.4514   -3.7121  -21.0806 O   0  0  0  0  0  0  0  0  0  0  0  0
   -5.6632   -1.3590  -21.4593 C   0  0  0  0  0  0  0  0  0  0  0  0
   -4.5852   -1.0991  -20.6381 C   0  0  0  0  0  0  0  0  0  0  0  0
   -4.1998    0.2248  -20.4558 C   0  0  0  0  0  0  0  0  0  0  0  0
   -4.8986    1.2436  -21.0956 C   0  0  0  0  0  0  0  0  0  0  0  0
   -4.5285    2.5562  -20.9243 F   0  0  0  0  0  0  0  0  0  0  0  0
   -5.9733    0.9546  -21.9115 C   0  0  0  0  0  0  0  0  0  0  0  0
   -6.3757   -0.3674  -22.1073 C   0  0  0  0  0  0  0  0  0  0  0  0
  -10.7998    0.9071  -23.6921 C   0  0  0  0  0  0  0  0  0  0  0  0
  -11.2881    2.1752  -24.0140 C   0  0  0  0  0  0  0  0  0  0  0  0
  -12.6256    2.4289  -23.9886 N   0  0  0  0  0  0  0  0  0  0  0  0
  -13.4903    1.4462  -23.6491 C   0  0  0  0  0  0  0  0  0  0  0  0
  -13.0625    0.1746  -23.3219 C   0  0  0  0  0  0  0  0  0  0  0  0
  -13.9895   -0.8088  -22.9777 C   0  0  0  0  0  0  0  0  0  0  0  0
  -13.5219   -2.0834  -22.6525 C   0  0  0  0  0  0  0  0  0  0  0  0
  -12.1718   -2.3658  -22.6707 C   0  0  0  0  0  0  0  0  0  0  0  0
  -11.2925   -1.3584  -23.0181 C   0  0  0  0  0  0  0  0  0  0  0  0
  -11.7089   -0.0834  -23.3472 C   0  0  0  0  0  0  0  0  0  0  0  0
   -7.3298   -4.3737  -22.9972 C   0  0  0  0  0  0  0  0  0  0  0  0
   -8.1617   -4.3652  -24.2423 C   0  0  0  0  0  0  0  0  0  0  0  0
   -7.5536   -4.6653  -25.4672 C   0  0  0  0  0  0  0  0  0  0  0  0
   -8.3061   -4.6621  -26.6271 C   0  0  0  0  0  0  0  0  0  0  0  0
   -7.7543   -4.9333  -27.7290 O   0  0  0  0  0  0  0  0  0  0  0  0
   -9.6304   -4.3640  -26.5419 N   0  0  0  0  0  0  0  0  0  0  0  0
  -10.2183   -4.0744  -25.3617 C   0  0  0  0  0  0  0  0  0  0  0  0
   -9.4766   -4.0790  -24.2292 N   0  0  0  0  0  0  0  0  0  0  0  0
  -10.1745   -4.3594  -27.3624 H   0  0  0  0  0  0  0  0  0  0  0  0
  1  2  1  0  0  0  0
  2  3  1  0  0  0  0
  3  4  1  0  0  0  0
  4 19  1  0  0  0  0
  4  5  1  0  0  0  0
 19 20  2  0  0  0  0
 20 21  1  0  0  0  0
 21 22  2  0  0  0  0
 22 23  1  0  0  0  0
 23 24  2  0  0  0  0
 24 25  1  0  0  0  0
 25 26  2  0  0  0  0
 26 27  1  0  0  0  0
 27 28  2  0  0  0  0
 19 28  1  0  0  0  0
 23 28  1  0  0  0  0
  5  6  2  0  0  0  0
  5  7  1  0  0  0  0
  7  8  1  0  0  0  0
  2  7  1  0  0  0  0
  8  9  1  0  0  0  0
  9 29  1  0  0  0  0
  9 10  1  0  0  0  0
 29 30  1  0  0  0  0
 30 31  2  0  0  0  0
 31 32  1  0  0  0  0
 32 33  2  0  0  0  0
 32 34  1  0  0  0  0
 34 35  1  0  0  0  0
 34 37  1  0  0  0  0
 35 36  2  0  0  0  0
 30 36  1  0  0  0  0
 10 11  2  0  0  0  0
 10 12  1  0  0  0  0
 12 13  2  0  0  0  0
 13 14  1  0  0  0  0
 14 15  2  0  0  0  0
 15 16  1  0  0  0  0
 15 17  1  0  0  0  0
 17 18  2  0  0  0  0
 12 18  1  0  0  0  0
  7 18  1  0  0  0  0
M  END
$$$$
Mol_32
  PyMOL2.5          3D                             0

 42 47  0  0  0  0  0  0  0  0999 V2000
  -10.6099    3.2555  -24.3373 N   0  0  0  0  0  0  0  0  0  0  0  0
   -9.4507    2.5090  -23.9396 C   0  0  0  0  0  0  0  0  0  0  0  0
   -9.5624    1.0320  -23.8699 C   0  0  0  0  0  0  0  0  0  0  0  0
   -8.8138    0.6052  -22.6279 C   0  0  0  0  0  0  0  0  0  0  0  0
   -9.1024    1.0520  -21.4784 O   0  0  0  0  0  0  0  0  0  0  0  0
   -7.7968   -0.3174  -22.9194 N   0  0  0  0  0  0  0  0  0  0  0  0
   -8.0128   -0.8043  -24.2611 C   0  0  0  0  0  0  0  0  0  0  0  0
   -8.8907    0.2548  -24.9417 C   0  0  0  0  0  0  0  0  0  0  0  0
  -10.9838    0.5941  -23.6884 C   0  0  0  0  0  0  0  0  0  0  0  0
  -11.2393   -0.7453  -23.3567 C   0  0  0  0  0  0  0  0  0  0  0  0
  -12.5309   -1.2097  -23.1785 C   0  0  0  0  0  0  0  0  0  0  0  0
  -12.8160   -2.9044  -22.7607 Cl  0  0  0  0  0  0  0  0  0  0  0  0
  -13.6176   -0.3740  -23.3203 C   0  0  0  0  0  0  0  0  0  0  0  0
  -13.3823    0.9278  -23.6421 C   0  0  0  0  0  0  0  0  0  0  0  0
  -12.0870    1.3852  -23.8187 C   0  0  0  0  0  0  0  0  0  0  0  0
  -11.9377    2.7920  -24.1594 C   0  0  0  0  0  0  0  0  0  0  0  0
  -12.9329    3.5372  -24.2847 O   0  0  0  0  0  0  0  0  0  0  0  0
   -6.7625   -0.6692  -22.0052 C   0  0  0  0  0  0  0  0  0  0  0  0
   -6.6360   -1.9462  -21.4728 C   0  0  0  0  0  0  0  0  0  0  0  0
   -5.6511   -2.2695  -20.6039 N   0  0  0  0  0  0  0  0  0  0  0  0
   -4.7209   -1.3942  -20.1854 C   0  0  0  0  0  0  0  0  0  0  0  0
   -4.8014   -0.1112  -20.6846 C   0  0  0  0  0  0  0  0  0  0  0  0
   -3.8491    0.7970  -20.2597 C   0  0  0  0  0  0  0  0  0  0  0  0
   -3.9024    2.0930  -20.7416 C   0  0  0  0  0  0  0  0  0  0  0  0
   -4.8838    2.4882  -21.6321 C   0  0  0  0  0  0  0  0  0  0  0  0
   -5.8045    1.5401  -22.0191 C   0  0  0  0  0  0  0  0  0  0  0  0
   -5.8030    0.2429  -21.5768 C   0  0  0  0  0  0  0  0  0  0  0  0
  -10.4443    4.5642  -24.9364 C   0  0  0  0  0  0  0  0  0  0  0  0
   -7.0783    6.2891  -24.6687 C   0  0  0  0  0  0  0  0  0  0  0  0
   -8.1753    5.5118  -25.2341 N   0  0  0  0  0  0  0  0  0  0  0  0
   -9.3188    5.3402  -24.4038 C   0  0  0  0  0  0  0  0  0  0  0  0
   -9.2751    5.8723  -23.2674 O   0  0  0  0  0  0  0  0  0  0  0  0
   -8.1277    5.1275  -26.1392 H   0  0  0  0  0  0  0  0  0  0  0  0
   -8.0200    0.9637  -25.9031 C   0  0  0  0  0  0  0  0  0  0  0  0
   -6.6757    1.2268  -25.5128 N   0  0  0  0  0  0  0  0  0  0  0  0
   -6.4553    1.5597  -24.6129 H   0  0  0  0  0  0  0  0  0  0  0  0
   -5.6495    0.9811  -26.5030 C   0  0  0  0  0  0  0  0  0  0  0  0
   -5.2507   -0.3055  -26.8002 C   0  0  0  0  0  0  0  0  0  0  0  0
   -4.2690   -0.5043  -27.7503 C   0  0  0  0  0  0  0  0  0  0  0  0
   -3.6927    0.5429  -28.3937 N   0  0  0  0  0  0  0  0  0  0  0  0
   -4.1074    1.7840  -28.0775 C   0  0  0  0  0  0  0  0  0  0  0  0
   -5.0655    2.0071  -27.1524 N   0  0  0  0  0  0  0  0  0  0  0  0
 29 30  1  0  0  0  0
 30 31  1  0  0  0  0
 30 33  1  0  0  0  0
 31 32  2  0  0  0  0
 28 31  1  0  0  0  0
  1 28  1  0  0  0  0
  1  2  1  0  0  0  0
  2  3  1  0  0  0  0
  3  4  1  0  0  0  0
  3  9  1  0  0  0  0
  4  5  2  0  0  0  0
  4  6  1  0  0  0  0
  6 18  1  0  0  0  0
  6  7  1  0  0  0  0
 18 19  2  0  0  0  0
 19 20  1  0  0  0  0
 20 21  2  0  0  0  0
 21 22  1  0  0  0  0
 22 23  2  0  0  0  0
 23 24  1  0  0  0  0
 24 25  2  0  0  0  0
 25 26  1  0  0  0  0
 26 27  2  0  0  0  0
 18 27  1  0  0  0  0
 22 27  1  0  0  0  0
  7  8  1  0  0  0  0
  8 34  1  0  0  0  0
  3  8  1  0  0  0  0
 34 35  1  0  0  0  0
 35 37  1  0  0  0  0
 35 36  1  0  0  0  0
 37 38  2  0  0  0  0
 38 39  1  0  0  0  0
 39 40  2  0  0  0  0
 40 41  1  0  0  0  0
 41 42  2  0  0  0  0
 37 42  1  0  0  0  0
  9 10  2  0  0  0  0
 10 11  1  0  0  0  0
 11 12  1  0  0  0  0
 11 13  2  0  0  0  0
 13 14  1  0  0  0  0
 14 15  2  0  0  0  0
 15 16  1  0  0  0  0
  9 15  1  0  0  0  0
 16 17  2  0  0  0  0
  1 16  1  0  0  0  0
M  END
$$$$
Mol_33
  PyMOL2.5          3D                             0

 35 40  0  0  0  0  0  0  0  0999 V2000
   -7.0299    1.6306  -22.5040 C   0  0  0  0  0  0  0  0  0  0  0  0
   -8.4277    1.0838  -22.4414 C   0  0  0  0  0  0  0  0  0  0  0  0
   -9.3537    2.2456  -22.6718 C   0  0  0  0  0  0  0  0  0  0  0  0
   -9.3778    2.3774  -24.1067 N   0  0  0  0  0  0  0  0  0  0  0  0
   -8.8927    1.1850  -24.7056 C   0  0  0  0  0  0  0  0  0  0  0  0
   -8.6818    1.0415  -25.9469 O   0  0  0  0  0  0  0  0  0  0  0  0
   -8.6977    0.1968  -23.6163 C   0  0  0  0  0  0  0  0  0  0  0  0
   -7.5910   -0.7778  -23.9269 C   0  0  0  0  0  0  0  0  0  0  0  0
   -7.5148   -1.7612  -22.8922 N   0  0  0  0  0  0  0  0  0  0  0  0
   -8.7024   -2.5316  -22.6314 C   0  0  0  0  0  0  0  0  0  0  0  0
   -8.6378   -3.7078  -22.1622 O   0  0  0  0  0  0  0  0  0  0  0  0
   -9.9649   -1.8810  -22.9370 C   0  0  0  0  0  0  0  0  0  0  0  0
  -11.1158   -2.6019  -22.7460 C   0  0  0  0  0  0  0  0  0  0  0  0
  -12.3384   -2.0553  -23.0613 C   0  0  0  0  0  0  0  0  0  0  0  0
  -12.3710   -0.7750  -23.5696 C   0  0  0  0  0  0  0  0  0  0  0  0
  -13.5903   -0.2515  -23.8764 F   0  0  0  0  0  0  0  0  0  0  0  0
  -11.2048   -0.0695  -23.7525 C   0  0  0  0  0  0  0  0  0  0  0  0
   -9.9521   -0.5873  -23.4449 C   0  0  0  0  0  0  0  0  0  0  0  0
   -9.8573    3.5722  -24.7517 C   0  0  0  0  0  0  0  0  0  0  0  0
   -8.9983    4.4402  -25.4091 C   0  0  0  0  0  0  0  0  0  0  0  0
   -9.4598    5.5737  -26.0142 N   0  0  0  0  0  0  0  0  0  0  0  0
  -10.7517    5.9169  -26.0128 C   0  0  0  0  0  0  0  0  0  0  0  0
  -11.6382    5.0963  -25.3792 C   0  0  0  0  0  0  0  0  0  0  0  0
  -12.9680    5.4532  -25.3767 C   0  0  0  0  0  0  0  0  0  0  0  0
  -13.9079    4.6628  -24.7487 C   0  0  0  0  0  0  0  0  0  0  0  0
  -13.4695    3.5194  -24.1334 C   0  0  0  0  0  0  0  0  0  0  0  0
  -12.1412    3.1672  -24.1386 C   0  0  0  0  0  0  0  0  0  0  0  0
  -11.1885    3.9294  -24.7521 C   0  0  0  0  0  0  0  0  0  0  0  0
   -6.3288   -2.0465  -22.1036 C   0  0  0  0  0  0  0  0  0  0  0  0
   -6.4159   -1.3595  -20.7679 C   0  0  0  0  0  0  0  0  0  0  0  0
   -7.4161   -1.4699  -19.8686 N   0  0  0  0  0  0  0  0  0  0  0  0
   -7.0972   -0.6972  -18.8242 N   0  0  0  0  0  0  0  0  0  0  0  0
   -5.9494   -0.1184  -19.0403 N   0  0  0  0  0  0  0  0  0  0  0  0
   -5.5063   -0.5089  -20.2318 N   0  0  0  0  0  0  0  0  0  0  0  0
   -4.2573   -0.0807  -20.8307 C   0  0  0  0  0  0  0  0  0  0  0  0
  1  2  1  0  0  0  0
  2  3  1  0  0  0  0
  3  4  1  0  0  0  0
  4 19  1  0  0  0  0
  4  5  1  0  0  0  0
 19 20  2  0  0  0  0
 20 21  1  0  0  0  0
 21 22  2  0  0  0  0
 22 23  1  0  0  0  0
 23 24  2  0  0  0  0
 24 25  1  0  0  0  0
 25 26  2  0  0  0  0
 26 27  1  0  0  0  0
 27 28  2  0  0  0  0
 19 28  1  0  0  0  0
 23 28  1  0  0  0  0
  5  6  2  0  0  0  0
  5  7  1  0  0  0  0
  7  8  1  0  0  0  0
  2  7  1  0  0  0  0
  8  9  1  0  0  0  0
  9 29  1  0  0  0  0
  9 10  1  0  0  0  0
 29 30  1  0  0  0  0
 30 31  2  0  0  0  0
 31 32  1  0  0  0  0
 32 33  2  0  0  0  0
 33 34  1  0  0  0  0
 34 35  1  0  0  0  0
 30 34  1  0  0  0  0
 10 11  2  0  0  0  0
 10 12  1  0  0  0  0
 12 13  2  0  0  0  0
 13 14  1  0  0  0  0
 14 15  2  0  0  0  0
 15 16  1  0  0  0  0
 15 17  1  0  0  0  0
 17 18  2  0  0  0  0
 12 18  1  0  0  0  0
  7 18  1  0  0  0  0
M  END
$$$$
Mol_34
  PyMOL2.5          3D                             0

 33 34  0  0  0  0  0  0  0  0999 V2000
  -10.2330   -1.4740  -23.0330 C   0  0  0  0  0  0  0  0  0  0  0  0
  -11.2117   -2.3506  -22.6306 C   0  0  0  0  0  0  0  0  0  0  0  0
  -12.5349   -1.9178  -22.6117 C   0  0  0  0  0  0  0  0  0  0  0  0
  -13.7984   -3.0425  -22.0945 Cl  0  0  0  0  0  0  0  0  0  0  0  0
  -12.8867   -0.6285  -22.9877 C   0  0  0  0  0  0  0  0  0  0  0  0
  -11.9052    0.2423  -23.3886 C   0  0  0  0  0  0  0  0  0  0  0  0
  -10.5888   -0.1845  -23.4085 C   0  0  0  0  0  0  0  0  0  0  0  0
  -12.1606    1.6176  -23.8036 C   0  0  0  0  0  0  0  0  0  0  0  0
  -11.1338    2.3827  -24.2749 C   0  0  0  0  0  0  0  0  0  0  0  0
  -11.3828    3.6817  -24.6651 C   0  0  0  0  0  0  0  0  0  0  0  0
  -12.6587    4.1566  -24.5639 C   0  0  0  0  0  0  0  0  0  0  0  0
  -13.7045    3.3753  -24.0832 C   0  0  0  0  0  0  0  0  0  0  0  0
  -13.4635    2.0785  -23.6921 C   0  0  0  0  0  0  0  0  0  0  0  0
  -12.9879    5.8056  -25.0565 S   0  0  0  0  0  0  0  0  0  0  0  0
  -14.0412    6.5767  -23.9230 N   0  0  0  0  0  0  0  0  0  0  0  0
  -11.7042    6.5857  -25.0965 O   0  0  0  0  0  0  0  0  0  0  0  0
  -13.5885    5.8060  -26.4341 O   0  0  0  0  0  0  0  0  0  0  0  0
  -13.6126    6.5640  -22.9975 H   0  0  0  0  0  0  0  0  0  0  0  0
  -14.9309    6.0789  -23.8925 H   0  0  0  0  0  0  0  0  0  0  0  0
   -8.7154   -3.3663  -23.0800 C   0  0  0  0  0  0  0  0  0  0  0  0
   -8.8121   -1.8532  -23.0804 C   0  0  0  0  0  0  0  0  0  0  0  0
   -8.1881   -1.3898  -21.8445 N   0  0  0  0  0  0  0  0  0  0  0  0
   -7.1006   -0.4602  -21.9003 C   0  0  0  0  0  0  0  0  0  0  0  0
   -6.7143   -0.0679  -23.0407 O   0  0  0  0  0  0  0  0  0  0  0  0
   -8.5144   -1.7158  -20.9748 H   0  0  0  0  0  0  0  0  0  0  0  0
   -6.4473    0.0274  -20.6559 C   0  0  0  0  0  0  0  0  0  0  0  0
   -5.4113   -0.8285  -20.3304 O   0  0  0  0  0  0  0  0  0  0  0  0
   -5.8302   -1.6261  -18.8897 S   0  0  0  0  0  0  0  0  0  0  0  0
   -5.2250   -3.1960  -18.8899 N   0  0  0  0  0  0  0  0  0  0  0  0
   -5.2780   -0.8418  -17.7407 O   0  0  0  0  0  0  0  0  0  0  0  0
   -7.3245   -1.6544  -18.8118 O   0  0  0  0  0  0  0  0  0  0  0  0
   -4.2068   -3.1679  -18.9432 H   0  0  0  0  0  0  0  0  0  0  0  0
   -5.5937   -3.7024  -19.6949 H   0  0  0  0  0  0  0  0  0  0  0  0
 20 21  1  0  0  0  0
 21 22  1  0  0  0  0
  1 21  1  0  0  0  0
 22 23  1  0  0  0  0
 22 25  1  0  0  0  0
 23 24  2  0  0  0  0
 23 26  1  0  0  0  0
 26 27  1  0  0  0  0
 27 28  1  0  0  0  0
 28 29  1  0  0  0  0
 28 30  2  0  0  0  0
 28 31  2  0  0  0  0
 29 32  1  0  0  0  0
 29 33  1  0  0  0  0
  1  2  2  0  0  0  0
  2  3  1  0  0  0  0
  3  4  1  0  0  0  0
  3  5  2  0  0  0  0
  5  6  1  0  0  0  0
  6  8  1  0  0  0  0
  6  7  2  0  0  0  0
  8  9  2  0  0  0  0
  9 10  1  0  0  0  0
 10 11  2  0  0  0  0
 11 14  1  0  0  0  0
 11 12  1  0  0  0  0
 14 15  1  0  0  0  0
 14 16  2  0  0  0  0
 14 17  2  0  0  0  0
 15 18  1  0  0  0  0
 15 19  1  0  0  0  0
 12 13  2  0  0  0  0
  8 13  1  0  0  0  0
  1  7  1  0  0  0  0
M  END
$$$$
Mol_35
  PyMOL2.5          3D                             0

 38 42  0  0  0  0  0  0  0  0999 V2000
   -8.0067   -1.8390  -23.8929 N   0  0  0  0  0  0  0  0  0  0  0  0
   -7.5914   -0.5107  -24.2518 C   0  0  0  0  0  0  0  0  0  0  0  0
   -7.1796    0.3771  -23.1287 C   0  0  0  0  0  0  0  0  0  0  0  0
   -8.4514    1.0820  -22.6899 C   0  0  0  0  0  0  0  0  0  0  0  0
   -9.2020    0.7803  -21.7295 O   0  0  0  0  0  0  0  0  0  0  0  0
   -8.5899    2.1538  -23.6140 N   0  0  0  0  0  0  0  0  0  0  0  0
   -7.3924    2.2885  -24.4275 C   0  0  0  0  0  0  0  0  0  0  0  0
   -6.3817    1.5557  -23.5312 C   0  0  0  0  0  0  0  0  0  0  0  0
   -6.5580   -0.2952  -21.9732 C   0  0  0  0  0  0  0  0  0  0  0  0
   -5.8389    0.3560  -20.9928 C   0  0  0  0  0  0  0  0  0  0  0  0
   -5.2682   -0.2643  -19.9086 C   0  0  0  0  0  0  0  0  0  0  0  0
   -4.3669    0.6180  -18.6959 Cl  0  0  0  0  0  0  0  0  0  0  0  0
   -5.3901   -1.6503  -19.7304 C   0  0  0  0  0  0  0  0  0  0  0  0
   -6.0985   -2.3145  -20.6899 C   0  0  0  0  0  0  0  0  0  0  0  0
   -6.6658   -1.6887  -21.7711 C   0  0  0  0  0  0  0  0  0  0  0  0
   -7.4103   -2.4419  -22.7684 C   0  0  0  0  0  0  0  0  0  0  0  0
   -7.4887   -3.7059  -22.5541 O   0  0  0  0  0  0  0  0  0  0  0  0
   -9.7134    3.0312  -23.7879 C   0  0  0  0  0  0  0  0  0  0  0  0
   -9.4946    4.4037  -24.0075 C   0  0  0  0  0  0  0  0  0  0  0  0
  -10.5979    5.1988  -24.1555 N   0  0  0  0  0  0  0  0  0  0  0  0
  -11.8571    4.7196  -24.0988 C   0  0  0  0  0  0  0  0  0  0  0  0
  -12.1179    3.3642  -23.8827 C   0  0  0  0  0  0  0  0  0  0  0  0
  -13.4030    2.8632  -23.8223 C   0  0  0  0  0  0  0  0  0  0  0  0
  -13.5205    1.5103  -23.6044 C   0  0  0  0  0  0  0  0  0  0  0  0
  -12.4633    0.6502  -23.4472 C   0  0  0  0  0  0  0  0  0  0  0  0
  -11.1905    1.1988  -23.5152 C   0  0  0  0  0  0  0  0  0  0  0  0
  -10.9981    2.5710  -23.7350 C   0  0  0  0  0  0  0  0  0  0  0  0
   -9.0154   -2.5948  -24.6440 C   0  0  0  0  0  0  0  0  0  0  0  0
  -12.0371   -2.6575  -22.2779 C   0  0  0  0  0  0  0  0  0  0  0  0
  -10.6605   -2.8443  -22.6970 N   0  0  0  0  0  0  0  0  0  0  0  0
  -10.3374   -2.4822  -24.0275 C   0  0  0  0  0  0  0  0  0  0  0  0
  -11.2855   -2.0247  -24.7294 O   0  0  0  0  0  0  0  0  0  0  0  0
   -9.9811   -3.2066  -22.0836 H   0  0  0  0  0  0  0  0  0  0  0  0
   -5.0922    1.3281  -24.2409 C   0  0  0  0  0  0  0  0  0  0  0  0
   -4.2440    2.3653  -23.9962 O   0  0  0  0  0  0  0  0  0  0  0  0
   -3.1919    2.1729  -23.1549 C   0  0  0  0  0  0  0  0  0  0  0  0
   -3.3131    2.8019  -21.8077 C   0  0  0  0  0  0  0  0  0  0  0  0
   -2.8214    0.7174  -22.9522 C   0  0  0  0  0  0  0  0  0  0  0  0
 29 30  1  0  0  0  0
 30 31  1  0  0  0  0
 30 33  1  0  0  0  0
 31 32  2  0  0  0  0
 28 31  1  0  0  0  0
  1 28  1  0  0  0  0
  1  2  1  0  0  0  0
  2  3  1  0  0  0  0
  3  4  1  0  0  0  0
  3  9  1  0  0  0  0
  4  5  2  0  0  0  0
  4  6  1  0  0  0  0
  6 18  1  0  0  0  0
  6  7  1  0  0  0  0
 18 19  2  0  0  0  0
 19 20  1  0  0  0  0
 20 21  2  0  0  0  0
 21 22  1  0  0  0  0
 22 23  2  0  0  0  0
 23 24  1  0  0  0  0
 24 25  2  0  0  0  0
 25 26  1  0  0  0  0
 26 27  2  0  0  0  0
 18 27  1  0  0  0  0
 22 27  1  0  0  0  0
  7  8  1  0  0  0  0
  8 34  1  0  0  0  0
  3  8  1  0  0  0  0
 34 35  1  0  0  0  0
 35 36  1  0  0  0  0
 36 37  1  0  0  0  0
 36 38  1  0  0  0  0
  9 10  2  0  0  0  0
 10 11  1  0  0  0  0
 11 12  1  0  0  0  0
 11 13  2  0  0  0  0
 13 14  1  0  0  0  0
 14 15  2  0  0  0  0
 15 16  1  0  0  0  0
  9 15  1  0  0  0  0
 16 17  2  0  0  0  0
  1 16  1  0  0  0  0
M  END
$$$$
Mol_36
  PyMOL2.5          3D                             0

 23 25  0  0  0  0  0  0  0  0999 V2000
   -7.8998   -1.3515  -21.3294 O   0  0  0  0  0  0  0  0  0  0  0  0
   -7.3190   -2.3584  -21.8596 C   0  0  0  0  0  0  0  0  0  0  0  0
   -7.9804   -3.2095  -22.7871 N   0  0  0  0  0  0  0  0  0  0  0  0
   -7.2473   -4.3149  -23.3287 C   0  0  0  0  0  0  0  0  0  0  0  0
   -7.6274   -4.6507  -24.7635 C   0  0  0  0  0  0  0  0  0  0  0  0
   -9.1435   -4.6327  -24.7919 C   0  0  0  0  0  0  0  0  0  0  0  0
   -9.5492   -3.2069  -24.5887 C   0  0  0  0  0  0  0  0  0  0  0  0
   -9.3570   -2.8951  -23.1187 C   0  0  0  0  0  0  0  0  0  0  0  0
   -9.7221   -5.2860  -26.0098 C   0  0  0  0  0  0  0  0  0  0  0  0
   -9.6439   -4.5139  -27.1381 F   0  0  0  0  0  0  0  0  0  0  0  0
   -9.0167   -6.4875  -26.1620 F   0  0  0  0  0  0  0  0  0  0  0  0
  -11.0176   -5.6247  -25.7325 F   0  0  0  0  0  0  0  0  0  0  0  0
   -5.9084   -2.5732  -21.4376 C   0  0  0  0  0  0  0  0  0  0  0  0
   -5.5908   -1.6646  -20.3171 C   0  0  0  0  0  0  0  0  0  0  0  0
   -6.0498   -1.9230  -19.0267 C   0  0  0  0  0  0  0  0  0  0  0  0
   -5.7753   -1.1134  -17.9889 N   0  0  0  0  0  0  0  0  0  0  0  0
   -5.0360   -0.0105  -18.1696 C   0  0  0  0  0  0  0  0  0  0  0  0
   -4.5652    0.2747  -19.4374 C   0  0  0  0  0  0  0  0  0  0  0  0
   -3.8015    1.4262  -19.5910 C   0  0  0  0  0  0  0  0  0  0  0  0
   -3.2881    1.7902  -20.8283 C   0  0  0  0  0  0  0  0  0  0  0  0
   -3.5712    0.9585  -21.8899 C   0  0  0  0  0  0  0  0  0  0  0  0
   -4.3301   -0.1894  -21.7471 C   0  0  0  0  0  0  0  0  0  0  0  0
   -4.8279   -0.5335  -20.5232 C   0  0  0  0  0  0  0  0  0  0  0  0
  1  2  2  0  0  0  0
  2 13  1  0  0  0  0
  2  3  1  0  0  0  0
 13 14  1  0  0  0  0
 14 15  2  0  0  0  0
 15 16  1  0  0  0  0
 16 17  2  0  0  0  0
 17 18  1  0  0  0  0
 18 19  2  0  0  0  0
 19 20  1  0  0  0  0
 20 21  2  0  0  0  0
 21 22  1  0  0  0  0
 22 23  2  0  0  0  0
 14 23  1  0  0  0  0
 18 23  1  0  0  0  0
  3  4  1  0  0  0  0
  4  5  1  0  0  0  0
  5  6  1  0  0  0  0
  6  9  1  0  0  0  0
  6  7  1  0  0  0  0
  9 10  1  0  0  0  0
  9 11  1  0  0  0  0
  9 12  1  0  0  0  0
  7  8  1  0  0  0  0
  3  8  1  0  0  0  0
M  END
$$$$
Mol_37
  PyMOL2.5          3D                             0

 25 28  0  0  0  0  0  0  0  0999 V2000
   -8.4232    0.1108  -21.3035 O   0  0  0  0  0  0  0  0  0  0  0  0
   -7.8355   -0.9859  -21.5653 C   0  0  0  0  0  0  0  0  0  0  0  0
   -8.1358   -1.5208  -22.8820 N   0  0  0  0  0  0  0  0  0  0  0  0
   -7.4858   -2.7302  -23.3566 C   0  0  0  0  0  0  0  0  0  0  0  0
   -7.9324   -3.2576  -24.6584 C   0  0  0  0  0  0  0  0  0  0  0  0
   -8.8584   -2.4439  -25.4820 C   0  0  0  0  0  0  0  0  0  0  0  0
   -8.7571   -0.9808  -25.1668 C   0  0  0  0  0  0  0  0  0  0  0  0
   -9.0992   -0.8055  -23.7192 C   0  0  0  0  0  0  0  0  0  0  0  0
  -10.4929   -1.1223  -23.4209 C   0  0  0  0  0  0  0  0  0  0  0  0
  -11.5174   -0.2197  -23.7109 C   0  0  0  0  0  0  0  0  0  0  0  0
  -12.8437   -0.4977  -23.4148 C   0  0  0  0  0  0  0  0  0  0  0  0
  -13.2142   -1.7071  -22.8085 C   0  0  0  0  0  0  0  0  0  0  0  0
  -12.1979   -2.5903  -22.5264 C   0  0  0  0  0  0  0  0  0  0  0  0
  -10.8617   -2.3222  -22.8180 C   0  0  0  0  0  0  0  0  0  0  0  0
   -6.9188   -1.6607  -20.6129 C   0  0  0  0  0  0  0  0  0  0  0  0
   -6.1050   -0.7518  -19.7910 C   0  0  0  0  0  0  0  0  0  0  0  0
   -6.4942   -0.6154  -18.4420 C   0  0  0  0  0  0  0  0  0  0  0  0
   -5.8067    0.1373  -17.5805 N   0  0  0  0  0  0  0  0  0  0  0  0
   -4.7021    0.8225  -17.9193 C   0  0  0  0  0  0  0  0  0  0  0  0
   -4.2735    0.7224  -19.2549 C   0  0  0  0  0  0  0  0  0  0  0  0
   -3.1476    1.4219  -19.6840 C   0  0  0  0  0  0  0  0  0  0  0  0
   -2.7260    1.3505  -21.0093 C   0  0  0  0  0  0  0  0  0  0  0  0
   -3.4619    0.5637  -21.8839 C   0  0  0  0  0  0  0  0  0  0  0  0
   -4.5689   -0.1236  -21.4482 C   0  0  0  0  0  0  0  0  0  0  0  0
   -4.9895   -0.0646  -20.1601 C   0  0  0  0  0  0  0  0  0  0  0  0
  1  2  2  0  0  0  0
  2 15  1  0  0  0  0
  2  3  1  0  0  0  0
 15 16  1  0  0  0  0
 16 17  2  0  0  0  0
 17 18  1  0  0  0  0
 18 19  2  0  0  0  0
 19 20  1  0  0  0  0
 20 21  2  0  0  0  0
 21 22  1  0  0  0  0
 22 23  2  0  0  0  0
 23 24  1  0  0  0  0
 24 25  2  0  0  0  0
 16 25  1  0  0  0  0
 20 25  1  0  0  0  0
  3  4  1  0  0  0  0
  4  5  1  0  0  0  0
  5  6  1  0  0  0  0
  6  7  1  0  0  0  0
  7  8  1  0  0  0  0
  8  9  1  0  0  0  0
  3  8  1  0  0  0  0
  9 10  2  0  0  0  0
 10 11  1  0  0  0  0
 11 12  2  0  0  0  0
 12 13  1  0  0  0  0
 13 14  2  0  0  0  0
  9 14  1  0  0  0  0
M  END
$$$$
Mol_38
  PyMOL2.5          3D                             0

 33 37  0  0  0  0  0  0  0  0999 V2000
   -7.4753   -0.6736  -22.8233 N   0  0  0  0  0  0  0  0  0  0  0  0
   -6.4158   -0.5782  -23.8012 C   0  0  0  0  0  0  0  0  0  0  0  0
   -7.0379   -0.3508  -25.1489 C   0  0  0  0  0  0  0  0  0  0  0  0
   -7.7965   -1.6344  -25.4694 C   0  0  0  0  0  0  0  0  0  0  0  0
   -9.0348   -1.7271  -25.5464 O   0  0  0  0  0  0  0  0  0  0  0  0
   -6.7748   -2.6547  -25.6533 N   0  0  0  0  0  0  0  0  0  0  0  0
   -5.6819   -1.9305  -26.2224 C   0  0  0  0  0  0  0  0  0  0  0  0
   -6.0683   -0.4315  -26.2695 C   0  0  0  0  0  0  0  0  0  0  0  0
   -4.8256    0.3939  -26.0653 C   0  0  0  0  0  0  0  0  0  0  0  0
   -7.9478    0.7809  -25.1223 C   0  0  0  0  0  0  0  0  0  0  0  0
   -8.2184    1.5638  -26.2526 C   0  0  0  0  0  0  0  0  0  0  0  0
   -9.0963    2.6302  -26.2017 C   0  0  0  0  0  0  0  0  0  0  0  0
   -9.7497    2.9778  -25.0389 C   0  0  0  0  0  0  0  0  0  0  0  0
   -9.4906    2.2154  -23.9238 C   0  0  0  0  0  0  0  0  0  0  0  0
   -8.6227    1.1630  -23.9783 C   0  0  0  0  0  0  0  0  0  0  0  0
   -8.3922    0.4113  -22.7495 C   0  0  0  0  0  0  0  0  0  0  0  0
   -8.9691    0.6916  -21.6563 O   0  0  0  0  0  0  0  0  0  0  0  0
   -7.0352   -3.9803  -25.2572 C   0  0  0  0  0  0  0  0  0  0  0  0
   -6.4028   -4.5140  -24.1138 C   0  0  0  0  0  0  0  0  0  0  0  0
   -6.6155   -5.7525  -23.6740 N   0  0  0  0  0  0  0  0  0  0  0  0
   -7.4484   -6.5870  -24.2869 C   0  0  0  0  0  0  0  0  0  0  0  0
   -8.1057   -6.1584  -25.4020 C   0  0  0  0  0  0  0  0  0  0  0  0
   -8.9669   -7.0403  -26.0140 C   0  0  0  0  0  0  0  0  0  0  0  0
   -9.6686   -6.6696  -27.1417 C   0  0  0  0  0  0  0  0  0  0  0  0
   -9.4523   -5.3868  -27.6008 C   0  0  0  0  0  0  0  0  0  0  0  0
   -8.5906   -4.5092  -26.9858 C   0  0  0  0  0  0  0  0  0  0  0  0
   -7.8936   -4.8586  -25.8776 C   0  0  0  0  0  0  0  0  0  0  0  0
   -7.6311   -1.8055  -21.9284 C   0  0  0  0  0  0  0  0  0  0  0  0
  -11.3594   -2.5440  -22.8365 C   0  0  0  0  0  0  0  0  0  0  0  0
  -10.1197   -1.8589  -22.5216 N   0  0  0  0  0  0  0  0  0  0  0  0
   -8.9039   -2.5456  -22.2531 C   0  0  0  0  0  0  0  0  0  0  0  0
   -8.9268   -3.8023  -22.2961 O   0  0  0  0  0  0  0  0  0  0  0  0
  -10.1204   -0.8749  -22.4924 H   0  0  0  0  0  0  0  0  0  0  0  0
 29 30  1  0  0  0  0
 30 31  1  0  0  0  0
 30 33  1  0  0  0  0
 31 32  2  0  0  0  0
 28 31  1  0  0  0  0
  1 28  1  0  0  0  0
  1  2  1  0  0  0  0
  2  3  1  0  0  0  0
  3  4  1  0  0  0  0
  3 10  1  0  0  0  0
  4  5  2  0  0  0  0
  4  6  1  0  0  0  0
  6 18  1  0  0  0  0
  6  7  1  0  0  0  0
 18 19  2  0  0  0  0
 19 20  1  0  0  0  0
 20 21  2  0  0  0  0
 21 22  1  0  0  0  0
 22 23  2  0  0  0  0
 23 24  1  0  0  0  0
 24 25  2  0  0  0  0
 25 26  1  0  0  0  0
 26 27  2  0  0  0  0
 18 27  1  0  0  0  0
 22 27  1  0  0  0  0
  7  8  1  0  0  0  0
  8  9  1  0  0  0  0
  3  8  1  0  0  0  0
 10 11  2  0  0  0  0
 11 12  1  0  0  0  0
 12 13  2  0  0  0  0
 13 14  1  0  0  0  0
 14 15  2  0  0  0  0
 15 16  1  0  0  0  0
 10 15  1  0  0  0  0
 16 17  2  0  0  0  0
  1 16  1  0  0  0  0
M  END
$$$$
Mol_39
  PyMOL2.5          3D                             0

 22 24  0  0  0  0  0  0  0  0999 V2000
   -8.9230   -6.7214  -27.1430 C   0  0  0  0  0  0  0  0  0  0  0  0
   -9.3623   -5.4626  -26.4040 C   0  0  0  0  0  0  0  0  0  0  0  0
   -8.7207   -5.3683  -25.0603 C   0  0  0  0  0  0  0  0  0  0  0  0
   -8.9398   -3.9952  -24.4457 C   0  0  0  0  0  0  0  0  0  0  0  0
   -8.2156   -4.0319  -23.1146 C   0  0  0  0  0  0  0  0  0  0  0  0
   -8.5693   -2.9230  -25.3049 N   0  0  0  0  0  0  0  0  0  0  0  0
   -8.5748   -1.5344  -24.9893 C   0  0  0  0  0  0  0  0  0  0  0  0
   -8.1953   -0.7862  -25.9645 O   0  0  0  0  0  0  0  0  0  0  0  0
   -8.1371   -3.2973  -26.6645 C   0  0  0  0  0  0  0  0  0  0  0  0
   -6.6946   -3.6454  -26.6611 C   0  0  0  0  0  0  0  0  0  0  0  0
   -9.0628   -4.2833  -27.2864 C   0  0  0  0  0  0  0  0  0  0  0  0
   -8.9707   -0.9714  -23.6840 C   0  0  0  0  0  0  0  0  0  0  0  0
  -10.1961   -0.1780  -23.6764 C   0  0  0  0  0  0  0  0  0  0  0  0
  -10.3236    1.1481  -24.0076 C   0  0  0  0  0  0  0  0  0  0  0  0
  -11.5273    1.8028  -23.9729 N   0  0  0  0  0  0  0  0  0  0  0  0
  -12.6630    1.2232  -23.6205 C   0  0  0  0  0  0  0  0  0  0  0  0
  -12.5888   -0.1291  -23.2706 C   0  0  0  0  0  0  0  0  0  0  0  0
  -13.7771   -0.7117  -22.8903 C   0  0  0  0  0  0  0  0  0  0  0  0
  -13.8175   -2.0336  -22.5096 C   0  0  0  0  0  0  0  0  0  0  0  0
  -12.6260   -2.7370  -22.5270 C   0  0  0  0  0  0  0  0  0  0  0  0
  -11.4308   -2.1339  -22.9150 C   0  0  0  0  0  0  0  0  0  0  0  0
  -11.3831   -0.8170  -23.2963 C   0  0  0  0  0  0  0  0  0  0  0  0
  1  2  1  0  0  0  0
  2  3  1  0  0  0  0
  3  4  1  0  0  0  0
  4  5  1  0  0  0  0
  4  6  1  0  0  0  0
  6  7  1  0  0  0  0
  6  9  1  0  0  0  0
  7  8  2  0  0  0  0
  7 12  1  0  0  0  0
 12 13  1  0  0  0  0
 13 14  2  0  0  0  0
 14 15  1  0  0  0  0
 15 16  2  0  0  0  0
 16 17  1  0  0  0  0
 17 18  2  0  0  0  0
 18 19  1  0  0  0  0
 19 20  2  0  0  0  0
 20 21  1  0  0  0  0
 21 22  2  0  0  0  0
 13 22  1  0  0  0  0
 17 22  1  0  0  0  0
  9 10  1  0  0  0  0
  9 11  1  0  0  0  0
  2 11  1  0  0  0  0
M  END
$$$$
Mol_40
  PyMOL2.5          3D                             0

 25 29  0  0  0  0  0  0  0  0999 V2000
   -5.2551   -1.8085  -19.4285 C   0  0  0  0  0  0  0  0  0  0  0  0
   -5.4462   -2.7230  -20.5855 C   0  0  0  0  0  0  0  0  0  0  0  0
   -5.3873   -3.9764  -20.4935 O   0  0  0  0  0  0  0  0  0  0  0  0
   -5.7104   -2.1718  -21.8720 N   0  0  0  0  0  0  0  0  0  0  0  0
   -5.9178   -2.9520  -23.0905 C   0  0  0  0  0  0  0  0  0  0  0  0
   -6.0362   -1.9075  -24.1751 C   0  0  0  0  0  0  0  0  0  0  0  0
   -5.0701   -0.8741  -23.6047 C   0  0  0  0  0  0  0  0  0  0  0  0
   -5.8327   -0.7845  -22.2722 C   0  0  0  0  0  0  0  0  0  0  0  0
   -7.1860   -0.5505  -22.7756 C   0  0  0  0  0  0  0  0  0  0  0  0
   -8.3749    0.0905  -22.5309 C   0  0  0  0  0  0  0  0  0  0  0  0
   -8.6191    0.8902  -21.4265 O   0  5  0  0  0  0  0  0  0  0  0  0
   -9.1951   -0.2188  -23.5477 N   0  0  0  0  0  0  0  0  0  0  0  0
   -8.5496   -1.0243  -24.4024 C   0  0  0  0  0  0  0  0  0  0  0  0
   -9.0312   -1.5064  -25.4737 O   0  0  0  0  0  0  0  0  0  0  0  0
   -7.2980   -1.2367  -23.9306 N   0  0  0  0  0  0  0  0  0  0  0  0
  -10.5338    0.2823  -23.6204 C   0  0  0  0  0  0  0  0  0  0  0  0
  -10.8080    1.5693  -24.0386 C   0  0  0  0  0  0  0  0  0  0  0  0
  -12.0352    2.0847  -24.1243 N   0  0  0  0  0  0  0  0  0  0  0  0
  -13.0734    1.2875  -23.7769 C   0  0  0  0  0  0  0  0  0  0  0  0
  -12.9158   -0.0075  -23.3474 C   0  0  0  0  0  0  0  0  0  0  0  0
  -13.9752   -0.8092  -22.9969 C   0  0  0  0  0  0  0  0  0  0  0  0
  -13.8166   -2.1218  -22.5616 C   0  0  0  0  0  0  0  0  0  0  0  0
  -12.5204   -2.5951  -22.4953 C   0  0  0  0  0  0  0  0  0  0  0  0
  -11.4381   -1.8062  -22.8430 C   0  0  0  0  0  0  0  0  0  0  0  0
  -11.6146   -0.5081  -23.2722 C   0  0  0  0  0  0  0  0  0  0  0  0
  1  2  1  0  0  0  0
  2  3  2  0  0  0  0
  2  4  1  0  0  0  0
  4  5  1  0  0  0  0
  5  6  1  0  0  0  0
  6  7  1  0  0  0  0
  7  8  1  0  0  0  0
  8  9  1  0  0  0  0
  4  8  1  0  0  0  0
  9 10  2  0  0  0  0
 10 11  1  0  0  0  0
 10 12  1  0  0  0  0
 12 16  1  0  0  0  0
 12 13  1  0  0  0  0
 16 17  2  0  0  0  0
 17 18  1  0  0  0  0
 18 19  2  0  0  0  0
 19 20  1  0  0  0  0
 20 21  2  0  0  0  0
 21 22  1  0  0  0  0
 22 23  2  0  0  0  0
 23 24  1  0  0  0  0
 24 25  2  0  0  0  0
 16 25  1  0  0  0  0
 20 25  1  0  0  0  0
 13 14  2  0  0  0  0
 13 15  1  0  0  0  0
  9 15  1  0  0  0  0
  6 15  1  0  0  0  0
M  END
$$$$
Mol_41
  PyMOL2.5          3D                             0

 20 22  0  0  0  0  0  0  0  0999 V2000
   -6.3627   -2.2237  -21.3232 C   0  0  0  0  0  0  0  0  0  0  0  0
   -5.8938   -1.3408  -20.2267 C   0  0  0  0  0  0  0  0  0  0  0  0
   -6.3967   -1.4157  -18.9350 C   0  0  0  0  0  0  0  0  0  0  0  0
   -5.9767   -0.6249  -17.9478 N   0  0  0  0  0  0  0  0  0  0  0  0
   -5.0278    0.3094  -18.1372 C   0  0  0  0  0  0  0  0  0  0  0  0
   -4.4877    0.4372  -19.3906 C   0  0  0  0  0  0  0  0  0  0  0  0
   -3.5168    1.3858  -19.6068 C   0  0  0  0  0  0  0  0  0  0  0  0
   -2.9602    1.5293  -20.8661 C   0  0  0  0  0  0  0  0  0  0  0  0
   -3.4028    0.7058  -21.8783 C   0  0  0  0  0  0  0  0  0  0  0  0
   -4.3701   -0.2547  -21.7069 C   0  0  0  0  0  0  0  0  0  0  0  0
   -4.9082   -0.3723  -20.4282 C   0  0  0  0  0  0  0  0  0  0  0  0
  -10.3698   -4.8864  -25.7056 C   0  0  0  0  0  0  0  0  0  0  0  0
   -9.6092   -3.8565  -24.9341 C   0  0  0  0  0  0  0  0  0  0  0  0
  -10.4225   -3.3249  -23.7594 C   0  0  0  0  0  0  0  0  0  0  0  0
   -9.6795   -2.0979  -23.2732 C   0  0  0  0  0  0  0  0  0  0  0  0
   -8.4299   -2.5799  -22.7120 N   0  0  0  0  0  0  0  0  0  0  0  0
   -7.6472   -1.7190  -21.8958 C   0  0  0  0  0  0  0  0  0  0  0  0
   -8.0483   -0.5479  -21.6696 O   0  0  0  0  0  0  0  0  0  0  0  0
   -8.0078   -3.9339  -22.9982 C   0  0  0  0  0  0  0  0  0  0  0  0
   -8.2899   -4.3533  -24.4105 C   0  0  0  0  0  0  0  0  0  0  0  0
 12 13  1  0  0  0  0
 13 14  1  0  0  0  0
 14 15  1  0  0  0  0
 15 16  1  0  0  0  0
 16 17  1  0  0  0  0
 16 19  1  0  0  0  0
 17 18  2  0  0  0  0
  1 17  1  0  0  0  0
  1  2  1  0  0  0  0
  2  3  2  0  0  0  0
  3  4  1  0  0  0  0
  4  5  2  0  0  0  0
  5  6  1  0  0  0  0
  6  7  2  0  0  0  0
  7  8  1  0  0  0  0
  8  9  2  0  0  0  0
  9 10  1  0  0  0  0
 10 11  2  0  0  0  0
  2 11  1  0  0  0  0
  6 11  1  0  0  0  0
 19 20  1  0  0  0  0
 13 20  1  0  0  0  0
M  END
$$$$
Mol_42
  PyMOL2.5          3D                             0

 40 44  0  0  0  0  0  0  0  0999 V2000
   -6.5385   -4.8195  -23.1327 N   0  0  0  0  0  0  0  0  0  0  0  0
   -6.1541   -3.4668  -23.4112 C   0  0  0  0  0  0  0  0  0  0  0  0
   -7.2742   -2.5123  -23.1483 C   0  0  0  0  0  0  0  0  0  0  0  0
   -7.0195   -1.1768  -23.7522 C   0  0  0  0  0  0  0  0  0  0  0  0
   -6.4159   -1.0072  -24.8280 O   0  0  0  0  0  0  0  0  0  0  0  0
   -7.5461   -0.1445  -22.9538 N   0  0  0  0  0  0  0  0  0  0  0  0
   -8.0355   -0.7665  -21.7513 C   0  0  0  0  0  0  0  0  0  0  0  0
   -7.4922   -2.1582  -21.7041 C   0  0  0  0  0  0  0  0  0  0  0  0
   -8.5191   -2.9981  -23.7999 C   0  0  0  0  0  0  0  0  0  0  0  0
   -9.5202   -2.1118  -24.2267 C   0  0  0  0  0  0  0  0  0  0  0  0
  -10.6934   -2.5586  -24.7916 C   0  0  0  0  0  0  0  0  0  0  0  0
  -11.6435   -1.6513  -25.1931 F   0  0  0  0  0  0  0  0  0  0  0  0
  -10.9470   -3.9015  -24.9688 C   0  0  0  0  0  0  0  0  0  0  0  0
   -9.9756   -4.7898  -24.5580 C   0  0  0  0  0  0  0  0  0  0  0  0
   -8.8147   -4.3283  -23.9991 C   0  0  0  0  0  0  0  0  0  0  0  0
   -7.7893   -5.2953  -23.6517 C   0  0  0  0  0  0  0  0  0  0  0  0
   -7.9843   -6.5239  -23.7993 O   0  0  0  0  0  0  0  0  0  0  0  0
   -7.6411    1.2627  -23.1947 C   0  0  0  0  0  0  0  0  0  0  0  0
   -6.5306    2.1021  -23.1175 C   0  0  0  0  0  0  0  0  0  0  0  0
   -6.6098    3.4283  -23.3367 N   0  0  0  0  0  0  0  0  0  0  0  0
   -7.7671    4.0030  -23.6410 C   0  0  0  0  0  0  0  0  0  0  0  0
   -8.9189    3.2567  -23.7403 C   0  0  0  0  0  0  0  0  0  0  0  0
  -10.1176    3.8694  -24.0559 C   0  0  0  0  0  0  0  0  0  0  0  0
  -11.2779    3.1233  -24.1543 C   0  0  0  0  0  0  0  0  0  0  0  0
  -11.2174    1.7591  -23.9320 C   0  0  0  0  0  0  0  0  0  0  0  0
  -10.0063    1.1816  -23.6196 C   0  0  0  0  0  0  0  0  0  0  0  0
   -8.8315    1.8868  -23.5125 C   0  0  0  0  0  0  0  0  0  0  0  0
   -5.7633   -5.7784  -22.3819 C   0  0  0  0  0  0  0  0  0  0  0  0
   -4.1242   -7.6503  -25.3537 C   0  0  0  0  0  0  0  0  0  0  0  0
   -5.1633   -6.9908  -24.5609 N   0  0  0  0  0  0  0  0  0  0  0  0
   -4.8126   -6.4798  -23.3070 C   0  0  0  0  0  0  0  0  0  0  0  0
   -3.6232   -6.6041  -22.9023 O   0  0  0  0  0  0  0  0  0  0  0  0
   -6.0836   -6.9092  -24.9009 H   0  0  0  0  0  0  0  0  0  0  0  0
   -6.2066   -2.1808  -20.9542 C   0  0  0  0  0  0  0  0  0  0  0  0
   -6.2073   -1.5653  -19.3197 S   0  0  0  0  0  0  0  0  0  0  0  0
   -7.5610   -1.4314  -18.7565 O   0  0  0  0  0  0  0  0  0  0  0  0
   -5.3124   -2.3265  -18.3927 O   0  0  0  0  0  0  0  0  0  0  0  0
   -5.5009    0.0438  -19.4152 N   0  0  0  0  0  0  0  0  0  0  0  0
   -4.4923    0.0352  -20.4637 C   0  0  0  0  0  0  0  0  0  0  0  0
   -4.9093    0.3726  -18.1306 C   0  0  0  0  0  0  0  0  0  0  0  0
 29 30  1  0  0  0  0
 30 31  1  0  0  0  0
 30 33  1  0  0  0  0
 31 32  2  0  0  0  0
 28 31  1  0  0  0  0
  1 28  1  0  0  0  0
  1  2  1  0  0  0  0
  2  3  1  0  0  0  0
  3  4  1  0  0  0  0
  3  9  1  0  0  0  0
  4  5  2  0  0  0  0
  4  6  1  0  0  0  0
  6 18  1  0  0  0  0
  6  7  1  0  0  0  0
 18 19  2  0  0  0  0
 19 20  1  0  0  0  0
 20 21  2  0  0  0  0
 21 22  1  0  0  0  0
 22 23  2  0  0  0  0
 23 24  1  0  0  0  0
 24 25  2  0  0  0  0
 25 26  1  0  0  0  0
 26 27  2  0  0  0  0
 18 27  1  0  0  0  0
 22 27  1  0  0  0  0
  7  8  1  0  0  0  0
  8 34  1  0  0  0  0
  3  8  1  0  0  0  0
 34 35  1  0  0  0  0
 35 36  2  0  0  0  0
 35 37  2  0  0  0  0
 35 38  1  0  0  0  0
 38 39  1  0  0  0  0
 38 40  1  0  0  0  0
  9 10  2  0  0  0  0
 10 11  1  0  0  0  0
 11 12  1  0  0  0  0
 11 13  2  0  0  0  0
 13 14  1  0  0  0  0
 14 15  2  0  0  0  0
 15 16  1  0  0  0  0
  9 15  1  0  0  0  0
 16 17  2  0  0  0  0
  1 16  1  0  0  0  0
M  END
$$$$
Mol_43
  PyMOL2.5          3D                             0

 28 31  0  0  0  0  0  0  0  0999 V2000
  -10.0009    2.8818  -23.3091 N   0  0  0  0  0  0  0  0  0  0  0  0
   -9.6013    1.6707  -23.9799 C   0  0  0  0  0  0  0  0  0  0  0  0
   -9.6689    1.5127  -25.2069 O   0  0  0  0  0  0  0  0  0  0  0  0
   -9.9175    2.9195  -22.3289 H   0  0  0  0  0  0  0  0  0  0  0  0
   -9.0743    0.5376  -23.1504 C   0  0  0  0  0  0  0  0  0  0  0  0
   -7.7686    0.1591  -23.7998 C   0  0  0  0  0  0  0  0  0  0  0  0
   -7.0893   -0.8095  -22.9656 N   0  0  0  0  0  0  0  0  0  0  0  0
   -7.8542   -2.3323  -23.3959 S   0  0  0  0  0  0  0  0  0  0  0  0
   -7.4590   -3.4312  -22.4817 O   0  0  0  0  0  0  0  0  0  0  0  0
   -7.5091   -2.5840  -24.8332 O   0  0  0  0  0  0  0  0  0  0  0  0
   -9.5812   -1.9408  -23.2581 C   0  0  0  0  0  0  0  0  0  0  0  0
  -10.4370   -3.0093  -23.2535 C   0  0  0  0  0  0  0  0  0  0  0  0
  -11.7947   -2.8176  -23.1299 C   0  0  0  0  0  0  0  0  0  0  0  0
  -12.2382   -1.5227  -23.0135 C   0  0  0  0  0  0  0  0  0  0  0  0
  -13.9684   -1.2772  -22.8554 Cl  0  0  0  0  0  0  0  0  0  0  0  0
  -11.3689   -0.4450  -23.0189 C   0  0  0  0  0  0  0  0  0  0  0  0
   -9.9837   -0.6239  -23.1447 C   0  0  0  0  0  0  0  0  0  0  0  0
   -7.2269   -0.5992  -21.9770 H   0  0  0  0  0  0  0  0  0  0  0  0
  -12.8581    2.8171  -22.1072 C   0  0  0  0  0  0  0  0  0  0  0  0
  -12.8368    3.9577  -22.9957 N   0  0  0  0  0  0  0  0  0  0  0  0
  -13.9098    4.7303  -23.1766 N   0  0  0  0  0  0  0  0  0  0  0  0
  -13.6420    5.7075  -24.0528 C   0  0  0  0  0  0  0  0  0  0  0  0
  -12.3261    5.5065  -24.4187 C   0  0  0  0  0  0  0  0  0  0  0  0
  -11.5784    6.2471  -25.3101 C   0  0  0  0  0  0  0  0  0  0  0  0
  -10.3218    5.8618  -25.5166 N   0  0  0  0  0  0  0  0  0  0  0  0
   -9.7902    4.7788  -24.8740 C   0  0  0  0  0  0  0  0  0  0  0  0
  -10.5058    4.0183  -23.9798 C   0  0  0  0  0  0  0  0  0  0  0  0
  -11.8116    4.3974  -23.7495 C   0  0  0  0  0  0  0  0  0  0  0  0
 19 20  1  0  0  0  0
 20 21  1  0  0  0  0
 21 22  2  0  0  0  0
 22 23  1  0  0  0  0
 23 24  2  0  0  0  0
 24 25  1  0  0  0  0
 25 26  2  0  0  0  0
 26 27  1  0  0  0  0
  1 27  1  0  0  0  0
 27 28  2  0  0  0  0
  1  2  1  0  0  0  0
  1  4  1  0  0  0  0
  2  3  2  0  0  0  0
  2  5  1  0  0  0  0
  5  6  1  0  0  0  0
  6  7  1  0  0  0  0
  7  8  1  0  0  0  0
  7 18  1  0  0  0  0
  8  9  2  0  0  0  0
  8 10  2  0  0  0  0
  8 11  1  0  0  0  0
 11 12  2  0  0  0  0
 12 13  1  0  0  0  0
 13 14  2  0  0  0  0
 14 15  1  0  0  0  0
 14 16  1  0  0  0  0
 16 17  2  0  0  0  0
  5 17  1  0  0  0  0
 11 17  1  0  0  0  0
 20 28  1  0  0  0  0
 23 28  1  0  0  0  0
M  END
$$$$
Mol_44
  PyMOL2.5          3D                             0

 42 47  0  0  0  0  0  0  0  0999 V2000
   -9.4877    2.1584  -24.4366 N   0  0  0  0  0  0  0  0  0  0  0  0
   -8.8321    0.8971  -24.7059 C   0  0  0  0  0  0  0  0  0  0  0  0
   -9.1727   -0.1336  -23.6516 C   0  0  0  0  0  0  0  0  0  0  0  0
   -8.4971    0.3759  -22.4017 C   0  0  0  0  0  0  0  0  0  0  0  0
   -8.5833    1.5367  -21.9088 O   0  0  0  0  0  0  0  0  0  0  0  0
   -7.7179   -0.6661  -21.8271 N   0  0  0  0  0  0  0  0  0  0  0  0
   -7.8533   -1.8729  -22.6061 C   0  0  0  0  0  0  0  0  0  0  0  0
   -8.5368   -1.4511  -23.8933 C   0  0  0  0  0  0  0  0  0  0  0  0
  -10.6263   -0.1690  -23.4887 C   0  0  0  0  0  0  0  0  0  0  0  0
  -11.2334   -1.3368  -23.0149 C   0  0  0  0  0  0  0  0  0  0  0  0
  -12.5994   -1.4271  -22.8371 C   0  0  0  0  0  0  0  0  0  0  0  0
  -13.3572   -2.9026  -22.2395 Cl  0  0  0  0  0  0  0  0  0  0  0  0
  -13.4271   -0.3600  -23.1219 C   0  0  0  0  0  0  0  0  0  0  0  0
  -12.8503    0.8022  -23.5904 C   0  0  0  0  0  0  0  0  0  0  0  0
  -11.4835    0.8758  -23.7627 C   0  0  0  0  0  0  0  0  0  0  0  0
  -10.9060    2.1196  -24.2653 C   0  0  0  0  0  0  0  0  0  0  0  0
  -11.5835    3.1366  -24.5484 O   0  0  0  0  0  0  0  0  0  0  0  0
   -6.9205   -0.5440  -20.6578 C   0  0  0  0  0  0  0  0  0  0  0  0
   -7.3168   -1.1749  -19.4946 C   0  0  0  0  0  0  0  0  0  0  0  0
   -6.6125   -1.1037  -18.3494 N   0  0  0  0  0  0  0  0  0  0  0  0
   -5.4666   -0.3813  -18.3428 C   0  0  0  0  0  0  0  0  0  0  0  0
   -5.0215    0.2719  -19.4797 C   0  0  0  0  0  0  0  0  0  0  0  0
   -3.8444    1.0179  -19.4844 C   0  0  0  0  0  0  0  0  0  0  0  0
   -3.4078    1.6662  -20.6235 C   0  0  0  0  0  0  0  0  0  0  0  0
   -4.1473    1.5820  -21.7963 C   0  0  0  0  0  0  0  0  0  0  0  0
   -5.3178    0.8395  -21.7893 C   0  0  0  0  0  0  0  0  0  0  0  0
   -5.7521    0.1937  -20.6540 C   0  0  0  0  0  0  0  0  0  0  0  0
   -8.7437    3.3969  -24.3489 C   0  0  0  0  0  0  0  0  0  0  0  0
   -9.3601    5.3795  -27.6461 C   0  0  0  0  0  0  0  0  0  0  0  0
   -9.5605    4.7919  -26.3323 N   0  0  0  0  0  0  0  0  0  0  0  0
   -8.5531    4.0096  -25.7029 C   0  0  0  0  0  0  0  0  0  0  0  0
   -7.4756    3.8323  -26.3067 O   0  0  0  0  0  0  0  0  0  0  0  0
  -10.4151    4.9391  -25.8661 H   0  0  0  0  0  0  0  0  0  0  0  0
   -7.4361   -1.4059  -24.9360 C   0  0  0  0  0  0  0  0  0  0  0  0
   -7.7540   -2.4398  -25.9118 N   0  0  0  0  0  0  0  0  0  0  0  0
   -7.9144   -2.1795  -26.8477 H   0  0  0  0  0  0  0  0  0  0  0  0
   -7.8388   -3.7972  -25.5586 C   0  0  0  0  0  0  0  0  0  0  0  0
   -6.3905   -4.8795  -25.2730 S   0  0  0  0  0  0  0  0  0  0  0  0
   -7.5503   -6.3565  -24.8913 C   0  0  0  0  0  0  0  0  0  0  0  0
   -8.5590   -5.8572  -25.0239 N   0  0  0  0  0  0  0  0  0  0  0  0
   -8.8926   -4.6345  -25.3432 C   0  0  0  0  0  0  0  0  0  0  0  0
  -10.3229   -4.1676  -25.4690 C   0  0  0  0  0  0  0  0  0  0  0  0
 29 30  1  0  0  0  0
 30 31  1  0  0  0  0
 30 33  1  0  0  0  0
 31 32  2  0  0  0  0
 28 31  1  0  0  0  0
  1 28  1  0  0  0  0
  1  2  1  0  0  0  0
  2  3  1  0  0  0  0
  3  4  1  0  0  0  0
  3  9  1  0  0  0  0
  4  5  2  0  0  0  0
  4  6  1  0  0  0  0
  6 18  1  0  0  0  0
  6  7  1  0  0  0  0
 18 19  2  0  0  0  0
 19 20  1  0  0  0  0
 20 21  2  0  0  0  0
 21 22  1  0  0  0  0
 22 23  2  0  0  0  0
 23 24  1  0  0  0  0
 24 25  2  0  0  0  0
 25 26  1  0  0  0  0
 26 27  2  0  0  0  0
 18 27  1  0  0  0  0
 22 27  1  0  0  0  0
  7  8  1  0  0  0  0
  8 34  1  0  0  0  0
  3  8  1  0  0  0  0
 34 35  1  0  0  0  0
 35 37  1  0  0  0  0
 35 36  1  0  0  0  0
 37 38  1  0  0  0  0
 38 39  1  0  0  0  0
 39 40  2  0  0  0  0
 40 41  1  0  0  0  0
 41 42  1  0  0  0  0
 37 41  2  0  0  0  0
  9 10  2  0  0  0  0
 10 11  1  0  0  0  0
 11 12  1  0  0  0  0
 11 13  2  0  0  0  0
 13 14  1  0  0  0  0
 14 15  2  0  0  0  0
 15 16  1  0  0  0  0
  9 15  1  0  0  0  0
 16 17  2  0  0  0  0
  1 16  1  0  0  0  0
M  END
$$$$
Mol_45
  PyMOL2.5          3D                             0

 36 40  0  0  0  0  0  0  0  0999 V2000
   -7.1062   -2.1547  -22.7791 N   0  0  0  0  0  0  0  0  0  0  0  0
   -8.2208   -1.3988  -22.3111 C   0  0  0  0  0  0  0  0  0  0  0  0
   -9.0761   -0.7098  -23.3246 C   0  0  0  0  0  0  0  0  0  0  0  0
   -9.6763    0.4841  -22.6219 C   0  0  0  0  0  0  0  0  0  0  0  0
   -9.1558    1.1323  -21.6561 O   0  0  0  0  0  0  0  0  0  0  0  0
  -10.9337    0.8005  -23.1939 N   0  0  0  0  0  0  0  0  0  0  0  0
  -11.3653   -0.3913  -23.8777 C   0  0  0  0  0  0  0  0  0  0  0  0
  -10.2860   -1.4323  -23.7754 C   0  0  0  0  0  0  0  0  0  0  0  0
   -8.2240   -0.2352  -24.4598 C   0  0  0  0  0  0  0  0  0  0  0  0
   -8.7244    0.7031  -25.3711 C   0  0  0  0  0  0  0  0  0  0  0  0
   -7.9734    1.1865  -26.4165 C   0  0  0  0  0  0  0  0  0  0  0  0
   -8.7184    2.3665  -27.4958 Cl  0  0  0  0  0  0  0  0  0  0  0  0
   -6.6953    0.7728  -26.6189 C   0  0  0  0  0  0  0  0  0  0  0  0
   -6.1643   -0.1510  -25.7451 C   0  0  0  0  0  0  0  0  0  0  0  0
   -6.9325   -0.6372  -24.6869 C   0  0  0  0  0  0  0  0  0  0  0  0
   -6.2922   -1.6362  -23.8422 C   0  0  0  0  0  0  0  0  0  0  0  0
   -5.1143   -2.0101  -24.0372 O   0  0  0  0  0  0  0  0  0  0  0  0
  -11.6790    2.0170  -23.1447 C   0  0  0  0  0  0  0  0  0  0  0  0
  -12.9462    2.1069  -22.6079 C   0  0  0  0  0  0  0  0  0  0  0  0
  -13.6379    3.2844  -22.5714 N   0  0  0  0  0  0  0  0  0  0  0  0
  -13.1448    4.4359  -23.0502 C   0  0  0  0  0  0  0  0  0  0  0  0
  -11.8828    4.3979  -23.5969 C   0  0  0  0  0  0  0  0  0  0  0  0
  -11.3855    5.5931  -24.0896 C   0  0  0  0  0  0  0  0  0  0  0  0
  -10.1275    5.6309  -24.6540 C   0  0  0  0  0  0  0  0  0  0  0  0
   -9.4085    4.4546  -24.7032 C   0  0  0  0  0  0  0  0  0  0  0  0
   -9.9104    3.2922  -24.2159 C   0  0  0  0  0  0  0  0  0  0  0  0
  -11.1600    3.2166  -23.6461 C   0  0  0  0  0  0  0  0  0  0  0  0
   -6.6859   -3.4361  -22.2360 C   0  0  0  0  0  0  0  0  0  0  0  0
   -8.3123   -6.0705  -24.5086 C   0  0  0  0  0  0  0  0  0  0  0  0
   -8.2417   -4.9448  -23.6016 N   0  0  0  0  0  0  0  0  0  0  0  0
   -6.9653   -4.5413  -23.1455 C   0  0  0  0  0  0  0  0  0  0  0  0
   -5.9780   -5.2122  -23.5783 O   0  0  0  0  0  0  0  0  0  0  0  0
   -9.0566   -4.4748  -23.3112 H   0  0  0  0  0  0  0  0  0  0  0  0
  -10.7370   -2.4578  -22.7608 C   0  0  0  0  0  0  0  0  0  0  0  0
  -11.9709   -2.9383  -23.1212 O   0  0  0  0  0  0  0  0  0  0  0  0
  -12.9641   -2.6623  -22.1935 C   0  0  0  0  0  0  0  0  0  0  0  0
 29 30  1  0  0  0  0
 30 31  1  0  0  0  0
 30 33  1  0  0  0  0
 31 32  2  0  0  0  0
 28 31  1  0  0  0  0
  1 28  1  0  0  0  0
  1  2  1  0  0  0  0
  2  3  1  0  0  0  0
  3  4  1  0  0  0  0
  3  9  1  0  0  0  0
  4  5  2  0  0  0  0
  4  6  1  0  0  0  0
  6 18  1  0  0  0  0
  6  7  1  0  0  0  0
 18 19  2  0  0  0  0
 19 20  1  0  0  0  0
 20 21  2  0  0  0  0
 21 22  1  0  0  0  0
 22 23  2  0  0  0  0
 23 24  1  0  0  0  0
 24 25  2  0  0  0  0
 25 26  1  0  0  0  0
 26 27  2  0  0  0  0
 18 27  1  0  0  0  0
 22 27  1  0  0  0  0
  7  8  1  0  0  0  0
  8 34  1  0  0  0  0
  3  8  1  0  0  0  0
 34 35  1  0  0  0  0
 35 36  1  0  0  0  0
  9 10  2  0  0  0  0
 10 11  1  0  0  0  0
 11 12  1  0  0  0  0
 11 13  2  0  0  0  0
 13 14  1  0  0  0  0
 14 15  2  0  0  0  0
 15 16  1  0  0  0  0
  9 15  1  0  0  0  0
 16 17  2  0  0  0  0
  1 16  1  0  0  0  0
M  END
$$$$
Mol_46
  PyMOL2.5          3D                             0

 40 45  0  0  0  0  0  0  0  0999 V2000
   -9.4189    2.0520  -24.5496 N   0  0  0  0  0  0  0  0  0  0  0  0
   -8.7925    0.7722  -24.8069 C   0  0  0  0  0  0  0  0  0  0  0  0
   -9.1300   -0.1641  -23.6920 C   0  0  0  0  0  0  0  0  0  0  0  0
   -8.5205    0.3392  -22.4050 C   0  0  0  0  0  0  0  0  0  0  0  0
   -8.9909    1.2900  -21.6923 O   0  0  0  0  0  0  0  0  0  0  0  0
   -7.3458   -0.4116  -22.1161 N   0  0  0  0  0  0  0  0  0  0  0  0
   -7.0103   -1.1093  -23.3443 C   0  0  0  0  0  0  0  0  0  0  0  0
   -8.4200   -1.4626  -23.8443 C   0  0  0  0  0  0  0  0  0  0  0  0
  -10.5865   -0.2472  -23.5095 C   0  0  0  0  0  0  0  0  0  0  0  0
  -11.2215   -1.3663  -23.0042 C   0  0  0  0  0  0  0  0  0  0  0  0
  -12.6099   -1.4107  -22.8353 C   0  0  0  0  0  0  0  0  0  0  0  0
  -13.4121   -2.8310  -22.1941 Cl  0  0  0  0  0  0  0  0  0  0  0  0
  -13.4073   -0.3366  -23.1667 C   0  0  0  0  0  0  0  0  0  0  0  0
  -12.7820    0.7837  -23.6715 C   0  0  0  0  0  0  0  0  0  0  0  0
  -11.4154    0.8199  -23.8350 C   0  0  0  0  0  0  0  0  0  0  0  0
  -10.8453    2.0455  -24.3827 C   0  0  0  0  0  0  0  0  0  0  0  0
  -11.5289    3.0517  -24.6989 O   0  0  0  0  0  0  0  0  0  0  0  0
   -6.6726   -0.4420  -20.8637 C   0  0  0  0  0  0  0  0  0  0  0  0
   -7.2127   -1.3068  -19.9056 C   0  0  0  0  0  0  0  0  0  0  0  0
   -6.6587   -1.4131  -18.6951 N   0  0  0  0  0  0  0  0  0  0  0  0
   -5.5648   -0.6854  -18.3752 C   0  0  0  0  0  0  0  0  0  0  0  0
   -5.0160    0.1777  -19.3141 C   0  0  0  0  0  0  0  0  0  0  0  0
   -3.8986    0.9148  -18.9733 C   0  0  0  0  0  0  0  0  0  0  0  0
   -3.3584    1.7719  -19.9139 C   0  0  0  0  0  0  0  0  0  0  0  0
   -3.9248    1.8969  -21.1873 C   0  0  0  0  0  0  0  0  0  0  0  0
   -5.0510    1.1567  -21.5368 C   0  0  0  0  0  0  0  0  0  0  0  0
   -5.5578    0.3205  -20.5834 C   0  0  0  0  0  0  0  0  0  0  0  0
   -8.6881    3.3004  -24.4594 C   0  0  0  0  0  0  0  0  0  0  0  0
   -4.8710    2.9208  -24.9406 C   0  0  0  0  0  0  0  0  0  0  0  0
   -6.1987    3.0027  -24.3606 N   0  0  0  0  0  0  0  0  0  0  0  0
   -7.3708    3.2325  -25.1423 C   0  0  0  0  0  0  0  0  0  0  0  0
   -7.2558    3.3720  -26.3950 O   0  0  0  0  0  0  0  0  0  0  0  0
   -6.2951    2.8951  -23.3868 H   0  0  0  0  0  0  0  0  0  0  0  0
   -8.3825   -1.8410  -25.3069 C   0  0  0  0  0  0  0  0  0  0  0  0
   -8.6711   -3.2861  -25.5070 C   0  0  0  0  0  0  0  0  0  0  0  0
   -9.9735   -3.7631  -25.6256 C   0  0  0  0  0  0  0  0  0  0  0  0
  -10.2585   -5.0973  -25.8117 C   0  0  0  0  0  0  0  0  0  0  0  0
   -9.2206   -6.0245  -25.8874 C   0  0  0  0  0  0  0  0  0  0  0  0
   -7.9145   -5.5599  -25.7703 C   0  0  0  0  0  0  0  0  0  0  0  0
   -7.6404   -4.2254  -25.5847 C   0  0  0  0  0  0  0  0  0  0  0  0
 29 30  1  0  0  0  0
 30 31  1  0  0  0  0
 30 33  1  0  0  0  0
 31 32  2  0  0  0  0
 28 31  1  0  0  0  0
  1 28  1  0  0  0  0
  1  2  1  0  0  0  0
  2  3  1  0  0  0  0
  3  4  1  0  0  0  0
  3  9  1  0  0  0  0
  4  5  2  0  0  0  0
  4  6  1  0  0  0  0
  6 18  1  0  0  0  0
  6  7  1  0  0  0  0
 18 19  2  0  0  0  0
 19 20  1  0  0  0  0
 20 21  2  0  0  0  0
 21 22  1  0  0  0  0
 22 23  2  0  0  0  0
 23 24  1  0  0  0  0
 24 25  2  0  0  0  0
 25 26  1  0  0  0  0
 26 27  2  0  0  0  0
 18 27  1  0  0  0  0
 22 27  1  0  0  0  0
  7  8  1  0  0  0  0
  8 34  1  0  0  0  0
  3  8  1  0  0  0  0
 34 35  1  0  0  0  0
 35 36  2  0  0  0  0
 36 37  1  0  0  0  0
 37 38  2  0  0  0  0
 38 39  1  0  0  0  0
 39 40  2  0  0  0  0
 35 40  1  0  0  0  0
  9 10  2  0  0  0  0
 10 11  1  0  0  0  0
 11 12  1  0  0  0  0
 11 13  2  0  0  0  0
 13 14  1  0  0  0  0
 14 15  2  0  0  0  0
 15 16  1  0  0  0  0
  9 15  1  0  0  0  0
 16 17  2  0  0  0  0
  1 16  1  0  0  0  0
M  END
$$$$
Mol_47
  PyMOL2.5          3D                             0

 31 35  0  0  0  0  0  0  0  0999 V2000
   -7.2966   -1.4820  -24.7391 C   0  0  0  0  0  0  0  0  0  0  0  0
   -8.2775   -1.6173  -23.5666 C   0  0  0  0  0  0  0  0  0  0  0  0
   -7.5594   -1.9172  -22.3138 C   0  0  0  0  0  0  0  0  0  0  0  0
   -7.5318   -0.7066  -21.5533 N   0  0  0  0  0  0  0  0  0  0  0  0
   -8.5836    0.1027  -22.0214 C   0  0  0  0  0  0  0  0  0  0  0  0
   -9.0706    1.0483  -21.3097 O   0  0  0  0  0  0  0  0  0  0  0  0
   -8.9796   -0.3227  -23.3831 C   0  0  0  0  0  0  0  0  0  0  0  0
   -8.5527    0.7306  -24.3421 C   0  0  0  0  0  0  0  0  0  0  0  0
   -9.4286    1.8662  -24.3404 N   0  0  0  0  0  0  0  0  0  0  0  0
  -10.8431    1.7259  -24.3197 C   0  0  0  0  0  0  0  0  0  0  0  0
  -11.5663    2.6425  -24.7313 O   0  0  0  0  0  0  0  0  0  0  0  0
  -11.3591    0.4685  -23.7969 C   0  0  0  0  0  0  0  0  0  0  0  0
  -12.7271    0.2993  -23.7632 C   0  0  0  0  0  0  0  0  0  0  0  0
  -13.2484   -0.8788  -23.2741 C   0  0  0  0  0  0  0  0  0  0  0  0
  -12.3639   -1.8402  -22.8379 C   0  0  0  0  0  0  0  0  0  0  0  0
  -12.8846   -3.0026  -22.3555 F   0  0  0  0  0  0  0  0  0  0  0  0
  -10.9775   -1.6513  -22.8794 C   0  0  0  0  0  0  0  0  0  0  0  0
  -10.4555   -0.4671  -23.3713 C   0  0  0  0  0  0  0  0  0  0  0  0
   -6.6007   -0.4349  -20.5167 C   0  0  0  0  0  0  0  0  0  0  0  0
   -6.9128   -0.9287  -19.2468 C   0  0  0  0  0  0  0  0  0  0  0  0
   -6.0886   -0.7175  -18.2114 N   0  0  0  0  0  0  0  0  0  0  0  0
   -4.9440   -0.0300  -18.3580 C   0  0  0  0  0  0  0  0  0  0  0  0
   -4.5858    0.4847  -19.6068 C   0  0  0  0  0  0  0  0  0  0  0  0
   -3.4036    1.1866  -19.7270 C   0  0  0  0  0  0  0  0  0  0  0  0
   -3.0951    1.6763  -20.9909 C   0  0  0  0  0  0  0  0  0  0  0  0
   -3.9310    1.4695  -22.0706 C   0  0  0  0  0  0  0  0  0  0  0  0
   -5.1012    0.7656  -21.9148 C   0  0  0  0  0  0  0  0  0  0  0  0
   -5.4355    0.2676  -20.6765 C   0  0  0  0  0  0  0  0  0  0  0  0
   -8.9195    3.2453  -24.3794 C   0  0  0  0  0  0  0  0  0  0  0  0
   -7.8806    3.4228  -23.3836 C   0  0  0  0  0  0  0  0  0  0  0  0
   -7.0619    3.5826  -22.5971 N   0  0  0  0  0  0  0  0  0  0  0  0
  1  2  1  0  0  0  0
  2  3  1  0  0  0  0
  3  4  1  0  0  0  0
  4 19  1  0  0  0  0
  4  5  1  0  0  0  0
 19 20  2  0  0  0  0
 20 21  1  0  0  0  0
 21 22  2  0  0  0  0
 22 23  1  0  0  0  0
 23 24  2  0  0  0  0
 24 25  1  0  0  0  0
 25 26  2  0  0  0  0
 26 27  1  0  0  0  0
 27 28  2  0  0  0  0
 19 28  1  0  0  0  0
 23 28  1  0  0  0  0
  5  6  2  0  0  0  0
  5  7  1  0  0  0  0
  7  8  1  0  0  0  0
  2  7  1  0  0  0  0
  8  9  1  0  0  0  0
  9 29  1  0  0  0  0
  9 10  1  0  0  0  0
 29 30  1  0  0  0  0
 30 31  3  0  0  0  0
 10 11  2  0  0  0  0
 10 12  1  0  0  0  0
 12 13  2  0  0  0  0
 13 14  1  0  0  0  0
 14 15  2  0  0  0  0
 15 16  1  0  0  0  0
 15 17  1  0  0  0  0
 17 18  2  0  0  0  0
 12 18  1  0  0  0  0
  7 18  1  0  0  0  0
M  END
$$$$
Mol_48
  PyMOL2.5          3D                             0

 32 37  0  0  0  0  0  0  0  0999 V2000
   -7.8663   -1.4707  -21.2029 O   0  0  0  0  0  0  0  0  0  0  0  0
   -7.1583   -2.2051  -21.9841 C   0  0  0  0  0  0  0  0  0  0  0  0
   -7.7472   -2.8084  -23.1481 N   0  0  0  0  0  0  0  0  0  0  0  0
   -9.1286   -2.5826  -23.3528 C   0  0  0  0  0  0  0  0  0  0  0  0
  -10.1614   -3.1333  -22.4524 C   0  0  0  0  0  0  0  0  0  0  0  0
  -11.3720   -2.7990  -23.2245 N   0  3  0  0  0  0  0  0  0  0  0  0
  -10.7956   -2.1837  -24.3827 C   0  0  0  0  0  0  0  0  0  0  0  0
   -9.6583   -3.1223  -24.7134 C   0  0  0  0  0  0  0  0  0  0  0  0
   -9.6667   -1.2870  -23.8231 C   0  0  0  0  0  0  0  0  0  0  0  0
  -11.9794   -3.5872  -23.4486 H   0  0  0  0  0  0  0  0  0  0  0  0
  -12.2249   -1.9043  -22.4753 C   0  0  0  0  0  0  0  0  0  0  0  0
  -13.5771   -2.5113  -22.1183 C   0  0  0  0  0  0  0  0  0  0  0  0
  -13.4407   -1.3308  -23.0547 C   0  0  0  0  0  0  0  0  0  0  0  0
   -5.7486   -2.3655  -21.5875 C   0  0  0  0  0  0  0  0  0  0  0  0
   -5.4313   -1.4790  -20.4049 C   0  0  0  0  0  0  0  0  0  0  0  0
   -5.9211   -1.8217  -19.1410 C   0  0  0  0  0  0  0  0  0  0  0  0
   -5.6519   -1.0398  -18.0719 N   0  0  0  0  0  0  0  0  0  0  0  0
   -4.9165    0.0716  -18.1958 C   0  0  0  0  0  0  0  0  0  0  0  0
   -4.4132    0.4409  -19.4435 C   0  0  0  0  0  0  0  0  0  0  0  0
   -3.6633    1.5974  -19.4841 C   0  0  0  0  0  0  0  0  0  0  0  0
   -3.1564    1.9702  -20.7211 C   0  0  0  0  0  0  0  0  0  0  0  0
   -3.4142    1.1939  -21.8267 C   0  0  0  0  0  0  0  0  0  0  0  0
   -4.1624    0.0380  -21.7918 C   0  0  0  0  0  0  0  0  0  0  0  0
   -4.6723   -0.3382  -20.5510 C   0  0  0  0  0  0  0  0  0  0  0  0
   -7.0150   -3.6296  -24.0811 C   0  0  0  0  0  0  0  0  0  0  0  0
   -6.7361   -5.0022  -23.6717 C   0  0  0  0  0  0  0  0  0  0  0  0
   -7.3132   -5.6579  -22.6074 C   0  0  0  0  0  0  0  0  0  0  0  0
   -6.9946   -6.9755  -22.2734 C   0  0  0  0  0  0  0  0  0  0  0  0
   -6.0753   -7.6985  -23.0005 C   0  0  0  0  0  0  0  0  0  0  0  0
   -5.4904   -7.0555  -24.0694 C   0  0  0  0  0  0  0  0  0  0  0  0
   -4.3028   -7.9338  -25.0404 Cl  0  0  0  0  0  0  0  0  0  0  0  0
   -5.8045   -5.7503  -24.4016 C   0  0  0  0  0  0  0  0  0  0  0  0
  1  2  2  0  0  0  0
  2 14  1  0  0  0  0
  2  3  1  0  0  0  0
 14 15  1  0  0  0  0
 15 16  2  0  0  0  0
 16 17  1  0  0  0  0
 17 18  2  0  0  0  0
 18 19  1  0  0  0  0
 19 20  2  0  0  0  0
 20 21  1  0  0  0  0
 21 22  2  0  0  0  0
 22 23  1  0  0  0  0
 23 24  2  0  0  0  0
 15 24  1  0  0  0  0
 19 24  1  0  0  0  0
  3 25  1  0  0  0  0
 25 26  1  0  0  0  0
 26 27  2  0  0  0  0
 27 28  1  0  0  0  0
 28 29  2  0  0  0  0
 29 30  1  0  0  0  0
 30 31  1  0  0  0  0
 30 32  2  0  0  0  0
 26 32  1  0  0  0  0
  3  4  1  0  0  0  0
  4  5  1  0  0  0  0
  5  6  1  0  0  0  0
  6 11  1  0  0  0  0
  6  7  1  0  0  0  0
  6 10  1  0  0  0  0
 11 12  1  0  0  0  0
 12 13  1  0  0  0  0
 11 13  1  0  0  0  0
  7  8  1  0  0  0  0
  7  9  1  0  0  0  0
  4  8  1  0  0  0  0
  4  9  1  0  0  0  0
M  END
$$$$
Mol_49
  PyMOL2.5          3D                             0

 22 24  0  0  0  0  0  0  0  0999 V2000
  -10.2482   -1.8169  -22.5478 C   0  0  0  0  0  0  0  0  0  0  0  0
   -9.2241   -2.8723  -22.6967 C   0  0  0  0  0  0  0  0  0  0  0  0
   -7.8007   -2.4658  -22.8194 C   0  0  0  0  0  0  0  0  0  0  0  0
   -7.6004   -1.1326  -23.3386 N   0  0  0  0  0  0  0  0  0  0  0  0
   -6.3590   -0.4468  -23.2474 C   0  0  0  0  0  0  0  0  0  0  0  0
   -6.2123    0.7175  -23.7099 O   0  0  0  0  0  0  0  0  0  0  0  0
   -8.7786   -0.5161  -23.9761 C   0  0  0  0  0  0  0  0  0  0  0  0
   -9.7765   -0.4395  -22.8567 C   0  0  0  0  0  0  0  0  0  0  0  0
  -11.1879   -3.4048  -24.1504 C   0  0  0  0  0  0  0  0  0  0  0  0
  -11.5201   -2.1905  -23.2731 C   0  0  0  0  0  0  0  0  0  0  0  0
  -12.6204   -2.6205  -22.3470 C   0  0  0  0  0  0  0  0  0  0  0  0
   -5.2399   -1.1632  -22.5819 C   0  0  0  0  0  0  0  0  0  0  0  0
   -5.0070   -0.5274  -21.2713 C   0  0  0  0  0  0  0  0  0  0  0  0
   -5.8386   -0.8224  -20.1911 C   0  0  0  0  0  0  0  0  0  0  0  0
   -5.6591   -0.2637  -18.9780 N   0  0  0  0  0  0  0  0  0  0  0  0
   -4.6661    0.6213  -18.7118 C   0  0  0  0  0  0  0  0  0  0  0  0
   -3.8287    0.9290  -19.7682 C   0  0  0  0  0  0  0  0  0  0  0  0
   -2.8085    1.8403  -19.4904 C   0  0  0  0  0  0  0  0  0  0  0  0
   -1.9678    2.1541  -20.5382 C   0  0  0  0  0  0  0  0  0  0  0  0
   -2.1177    1.6037  -21.7953 C   0  0  0  0  0  0  0  0  0  0  0  0
   -3.1433    0.7040  -22.0270 C   0  0  0  0  0  0  0  0  0  0  0  0
   -3.9919    0.3710  -21.0171 C   0  0  0  0  0  0  0  0  0  0  0  0
  9 10  1  0  0  0  0
 10 11  1  0  0  0  0
  1 10  1  0  0  0  0
  1  2  1  0  0  0  0
  2  3  1  0  0  0  0
  3  4  1  0  0  0  0
  4  5  1  0  0  0  0
  4  7  1  0  0  0  0
  5  6  2  0  0  0  0
  5 12  1  0  0  0  0
 12 13  1  0  0  0  0
 13 14  2  0  0  0  0
 14 15  1  0  0  0  0
 15 16  2  0  0  0  0
 16 17  1  0  0  0  0
 17 18  2  0  0  0  0
 18 19  1  0  0  0  0
 19 20  2  0  0  0  0
 20 21  1  0  0  0  0
 21 22  2  0  0  0  0
 13 22  1  0  0  0  0
 17 22  1  0  0  0  0
  7  8  1  0  0  0  0
  1  8  1  0  0  0  0
M  END
$$$$
Mol_50
  PyMOL2.5          3D                             0

 42 47  0  0  0  0  0  0  0  0999 V2000
   -5.3368    0.6427  -21.1530 N   0  0  0  0  0  0  0  0  0  0  0  0
   -5.6635   -0.3697  -22.1439 C   0  0  0  0  0  0  0  0  0  0  0  0
   -6.7428    0.0869  -23.0948 C   0  0  0  0  0  0  0  0  0  0  0  0
   -8.0704    0.1181  -22.4401 C   0  0  0  0  0  0  0  0  0  0  0  0
   -8.3551    0.3341  -21.2153 O   0  0  0  0  0  0  0  0  0  0  0  0
   -9.0124   -0.1463  -23.4614 N   0  0  0  0  0  0  0  0  0  0  0  0
   -8.3870   -1.0646  -24.3777 C   0  0  0  0  0  0  0  0  0  0  0  0
   -6.9115   -0.9526  -24.1599 C   0  0  0  0  0  0  0  0  0  0  0  0
   -6.4442    1.4199  -23.6687 C   0  0  0  0  0  0  0  0  0  0  0  0
   -6.9296    1.8694  -24.8747 C   0  0  0  0  0  0  0  0  0  0  0  0
   -6.6406    3.1192  -25.3861 C   0  0  0  0  0  0  0  0  0  0  0  0
   -7.2942    3.6343  -26.9370 Cl  0  0  0  0  0  0  0  0  0  0  0  0
   -5.8256    3.9817  -24.6712 C   0  0  0  0  0  0  0  0  0  0  0  0
   -5.3229    3.5579  -23.4562 C   0  0  0  0  0  0  0  0  0  0  0  0
   -5.6223    2.3057  -22.9612 C   0  0  0  0  0  0  0  0  0  0  0  0
   -5.0371    1.9487  -21.6734 C   0  0  0  0  0  0  0  0  0  0  0  0
   -4.2954    2.7194  -21.0105 O   0  0  0  0  0  0  0  0  0  0  0  0
  -10.3454    0.3953  -23.5612 C   0  0  0  0  0  0  0  0  0  0  0  0
  -10.5806    1.6957  -23.9552 C   0  0  0  0  0  0  0  0  0  0  0  0
  -11.8582    2.1374  -24.0266 N   0  0  0  0  0  0  0  0  0  0  0  0
  -12.8894    1.3527  -23.7275 C   0  0  0  0  0  0  0  0  0  0  0  0
  -12.7350    0.0362  -23.3240 C   0  0  0  0  0  0  0  0  0  0  0  0
  -13.7960   -0.7672  -23.0175 C   0  0  0  0  0  0  0  0  0  0  0  0
  -13.6213   -2.0682  -22.6200 C   0  0  0  0  0  0  0  0  0  0  0  0
  -12.3259   -2.5612  -22.5336 C   0  0  0  0  0  0  0  0  0  0  0  0
  -11.2644   -1.7342  -22.8475 C   0  0  0  0  0  0  0  0  0  0  0  0
  -11.4238   -0.4338  -23.2456 C   0  0  0  0  0  0  0  0  0  0  0  0
   -5.3075    0.3794  -19.7287 C   0  0  0  0  0  0  0  0  0  0  0  0
   -5.5319   -3.4877  -19.4088 C   0  0  0  0  0  0  0  0  0  0  0  0
   -5.0484   -2.1597  -19.7715 N   0  0  0  0  0  0  0  0  0  0  0  0
   -5.7614   -0.9913  -19.3823 C   0  0  0  0  0  0  0  0  0  0  0  0
   -6.8327   -1.0925  -18.7111 O   0  0  0  0  0  0  0  0  0  0  0  0
   -4.2179   -2.0708  -20.2925 H   0  0  0  0  0  0  0  0  0  0  0  0
   -6.4153   -2.3168  -23.7051 C   0  0  0  0  0  0  0  0  0  0  0  0
   -5.7883   -3.0427  -24.7776 N   0  0  0  0  0  0  0  0  0  0  0  0
   -4.9585   -2.7175  -25.1958 H   0  0  0  0  0  0  0  0  0  0  0  0
   -6.4061   -4.2410  -25.2111 C   0  0  0  0  0  0  0  0  0  0  0  0
   -6.0182   -5.2663  -25.9797 C   0  0  0  0  0  0  0  0  0  0  0  0
   -6.9219   -6.2177  -26.1445 N   0  0  0  0  0  0  0  0  0  0  0  0
   -7.9812   -6.3019  -25.7340 C   0  0  0  0  0  0  0  0  0  0  0  0
   -9.1616   -7.2223  -25.7606 C   0  0  0  0  0  0  0  0  0  0  0  0
   -8.1110   -4.6937  -24.7361 S   0  0  0  0  0  0  0  0  0  0  0  0
 29 30  1  0  0  0  0
 30 31  1  0  0  0  0
 30 33  1  0  0  0  0
 31 32  2  0  0  0  0
 28 31  1  0  0  0  0
  1 28  1  0  0  0  0
  1  2  1  0  0  0  0
  2  3  1  0  0  0  0
  3  4  1  0  0  0  0
  3  9  1  0  0  0  0
  4  5  2  0  0  0  0
  4  6  1  0  0  0  0
  6 18  1  0  0  0  0
  6  7  1  0  0  0  0
 18 19  2  0  0  0  0
 19 20  1  0  0  0  0
 20 21  2  0  0  0  0
 21 22  1  0  0  0  0
 22 23  2  0  0  0  0
 23 24  1  0  0  0  0
 24 25  2  0  0  0  0
 25 26  1  0  0  0  0
 26 27  2  0  0  0  0
 18 27  1  0  0  0  0
 22 27  1  0  0  0  0
  7  8  1  0  0  0  0
  8 34  1  0  0  0  0
  3  8  1  0  0  0  0
 34 35  1  0  0  0  0
 35 37  1  0  0  0  0
 35 36  1  0  0  0  0
 37 38  2  0  0  0  0
 38 39  1  0  0  0  0
 39 40  2  0  0  0  0
 40 41  1  0  0  0  0
 40 42  1  0  0  0  0
 37 42  1  0  0  0  0
  9 10  2  0  0  0  0
 10 11  1  0  0  0  0
 11 12  1  0  0  0  0
 11 13  2  0  0  0  0
 13 14  1  0  0  0  0
 14 15  2  0  0  0  0
 15 16  1  0  0  0  0
  9 15  1  0  0  0  0
 16 17  2  0  0  0  0
  1 16  1  0  0  0  0
M  END
$$$$
Mol_51
  PyMOL2.5          3D                             0

 38 42  0  0  0  0  0  0  0  0999 V2000
   -6.6592   -3.2940  -25.8140 N   0  0  0  0  0  0  0  0  0  0  0  0
   -6.2162   -2.7058  -24.5862 C   0  0  0  0  0  0  0  0  0  0  0  0
   -7.1536   -2.7955  -23.4415 C   0  0  0  0  0  0  0  0  0  0  0  0
   -6.9334   -1.6087  -22.5713 C   0  0  0  0  0  0  0  0  0  0  0  0
   -7.4287   -0.4578  -22.7925 O   0  0  0  0  0  0  0  0  0  0  0  0
   -6.0957   -1.9805  -21.4814 N   0  0  0  0  0  0  0  0  0  0  0  0
   -5.6425   -3.3431  -21.7671 C   0  0  0  0  0  0  0  0  0  0  0  0
   -6.8535   -3.9097  -22.4594 C   0  0  0  0  0  0  0  0  0  0  0  0
   -8.5811   -2.9476  -23.8184 C   0  0  0  0  0  0  0  0  0  0  0  0
   -9.5225   -2.7741  -22.8239 C   0  0  0  0  0  0  0  0  0  0  0  0
  -10.8744   -2.8960  -23.0800 C   0  0  0  0  0  0  0  0  0  0  0  0
  -11.7251   -2.7083  -22.0409 F   0  0  0  0  0  0  0  0  0  0  0  0
  -11.2989   -3.1978  -24.3572 C   0  0  0  0  0  0  0  0  0  0  0  0
  -10.3629   -3.3745  -25.3647 C   0  0  0  0  0  0  0  0  0  0  0  0
   -9.0049   -3.2488  -25.0930 C   0  0  0  0  0  0  0  0  0  0  0  0
   -8.0335   -3.4412  -26.1797 C   0  0  0  0  0  0  0  0  0  0  0  0
   -8.3828   -3.7172  -27.3565 O   0  0  0  0  0  0  0  0  0  0  0  0
   -5.7851   -1.1637  -20.3576 C   0  0  0  0  0  0  0  0  0  0  0  0
   -6.4721   -1.2833  -19.1552 C   0  0  0  0  0  0  0  0  0  0  0  0
   -6.1956   -0.5292  -18.0959 N   0  0  0  0  0  0  0  0  0  0  0  0
   -5.2235    0.3802  -18.1791 C   0  0  0  0  0  0  0  0  0  0  0  0
   -4.4975    0.5594  -19.3339 C   0  0  0  0  0  0  0  0  0  0  0  0
   -3.4859    1.5095  -19.4120 C   0  0  0  0  0  0  0  0  0  0  0  0
   -2.7588    1.6818  -20.5847 C   0  0  0  0  0  0  0  0  0  0  0  0
   -3.0525    0.8948  -21.6794 C   0  0  0  0  0  0  0  0  0  0  0  0
   -4.0622   -0.0702  -21.6378 C   0  0  0  0  0  0  0  0  0  0  0  0
   -4.7757   -0.2246  -20.4549 C   0  0  0  0  0  0  0  0  0  0  0  0
   -5.6845   -3.7865  -26.7799 C   0  0  0  0  0  0  0  0  0  0  0  0
   -3.2794   -6.4205  -25.2505 C   0  0  0  0  0  0  0  0  0  0  0  0
   -3.8580   -5.1756  -25.7520 N   0  0  0  0  0  0  0  0  0  0  0  0
   -5.1572   -5.0859  -26.2868 C   0  0  0  0  0  0  0  0  0  0  0  0
   -5.9059   -6.1149  -26.3586 O   0  0  0  0  0  0  0  0  0  0  0  0
   -3.3111   -4.3579  -25.7140 H   0  0  0  0  0  0  0  0  0  0  0  0
   -6.6563   -5.2277  -23.0789 C   0  0  0  0  0  0  0  0  0  0  0  0
   -5.3969   -5.7420  -22.8063 O   0  0  0  0  0  0  0  0  0  0  0  0
   -5.3799   -7.0120  -22.2939 C   0  0  0  0  0  0  0  0  0  0  0  0
   -5.5614   -7.0224  -20.7785 C   0  0  0  0  0  0  0  0  0  0  0  0
   -6.5618   -7.7921  -22.8471 C   0  0  0  0  0  0  0  0  0  0  0  0
 29 30  1  0  0  0  0
 30 31  1  0  0  0  0
 30 33  1  0  0  0  0
 31 32  2  0  0  0  0
 28 31  1  0  0  0  0
  1 28  1  0  0  0  0
  1  2  1  0  0  0  0
  2  3  1  0  0  0  0
  3  4  1  0  0  0  0
  3  9  1  0  0  0  0
  4  5  2  0  0  0  0
  4  6  1  0  0  0  0
  6 18  1  0  0  0  0
  6  7  1  0  0  0  0
 18 19  2  0  0  0  0
 19 20  1  0  0  0  0
 20 21  2  0  0  0  0
 21 22  1  0  0  0  0
 22 23  2  0  0  0  0
 23 24  1  0  0  0  0
 24 25  2  0  0  0  0
 25 26  1  0  0  0  0
 26 27  2  0  0  0  0
 18 27  1  0  0  0  0
 22 27  1  0  0  0  0
  7  8  1  0  0  0  0
  8 34  1  0  0  0  0
  3  8  1  0  0  0  0
 34 35  1  0  0  0  0
 35 36  1  0  0  0  0
 36 37  1  0  0  0  0
 36 38  1  0  0  0  0
  9 10  2  0  0  0  0
 10 11  1  0  0  0  0
 11 12  1  0  0  0  0
 11 13  2  0  0  0  0
 13 14  1  0  0  0  0
 14 15  2  0  0  0  0
 15 16  1  0  0  0  0
  9 15  1  0  0  0  0
 16 17  2  0  0  0  0
  1 16  1  0  0  0  0
M  END
$$$$
Mol_52
  PyMOL2.5          3D                             0

 31 33  0  0  0  0  0  0  0  0999 V2000
   -8.6965   -2.2607  -23.5486 N   0  0  0  0  0  0  0  0  0  0  0  0
   -7.7540   -1.9589  -22.5050 C   0  0  0  0  0  0  0  0  0  0  0  0
   -6.5557   -2.3586  -22.5526 O   0  0  0  0  0  0  0  0  0  0  0  0
   -8.1133   -1.1940  -21.3588 N   0  0  0  0  0  0  0  0  0  0  0  0
   -9.0260   -0.8437  -21.2423 H   0  0  0  0  0  0  0  0  0  0  0  0
   -7.1050   -0.9574  -20.3936 C   0  0  0  0  0  0  0  0  0  0  0  0
   -7.0934   -1.7826  -19.2647 C   0  0  0  0  0  0  0  0  0  0  0  0
   -6.1619   -1.6132  -18.3067 N   0  0  0  0  0  0  0  0  0  0  0  0
   -5.2148   -0.6434  -18.4097 C   0  0  0  0  0  0  0  0  0  0  0  0
   -5.2154    0.1869  -19.5316 C   0  0  0  0  0  0  0  0  0  0  0  0
   -4.2381    1.1581  -19.5980 C   0  0  0  0  0  0  0  0  0  0  0  0
   -4.2370    1.9874  -20.7166 C   0  0  0  0  0  0  0  0  0  0  0  0
   -5.1865    1.8300  -21.7136 C   0  0  0  0  0  0  0  0  0  0  0  0
   -6.1692    0.8505  -21.6428 C   0  0  0  0  0  0  0  0  0  0  0  0
   -6.1506    0.0372  -20.5210 C   0  0  0  0  0  0  0  0  0  0  0  0
  -10.0054   -1.7635  -23.3907 C   0  0  0  0  0  0  0  0  0  0  0  0
  -10.2498   -0.4850  -23.8723 C   0  0  0  0  0  0  0  0  0  0  0  0
  -11.4831    0.1243  -23.7879 C   0  0  0  0  0  0  0  0  0  0  0  0
  -12.5384   -0.5330  -23.2085 C   0  0  0  0  0  0  0  0  0  0  0  0
  -12.3096   -1.8010  -22.7271 C   0  0  0  0  0  0  0  0  0  0  0  0
  -13.6428   -2.6571  -21.9838 Cl  0  0  0  0  0  0  0  0  0  0  0  0
  -11.0569   -2.4165  -22.8143 C   0  0  0  0  0  0  0  0  0  0  0  0
   -8.2553   -3.0699  -24.6270 C   0  0  0  0  0  0  0  0  0  0  0  0
  -10.0286   -4.6171  -25.4012 C   0  0  0  0  0  0  0  0  0  0  0  0
   -8.8949   -4.3966  -24.7653 C   0  0  0  0  0  0  0  0  0  0  0  0
   -8.1812   -5.5241  -24.1321 C   0  0  0  0  0  0  0  0  0  0  0  0
   -7.9030   -6.5802  -24.7739 O   0  0  0  0  0  0  0  0  0  0  0  0
   -7.7667   -5.4918  -22.7748 N   0  0  0  0  0  0  0  0  0  0  0  0
   -7.9358   -4.7161  -22.1926 H   0  0  0  0  0  0  0  0  0  0  0  0
   -7.0673   -6.6947  -22.2957 C   0  0  0  0  0  0  0  0  0  0  0  0
   -5.7180   -6.3918  -21.7326 C   0  0  0  0  0  0  0  0  0  0  0  0
 24 25  2  0  0  0  0
 23 25  1  0  0  0  0
 25 26  1  0  0  0  0
  1 23  1  0  0  0  0
  1  2  1  0  0  0  0
  1 16  1  0  0  0  0
  2  3  2  0  0  0  0
  2  4  1  0  0  0  0
  4  6  1  0  0  0  0
  4  5  1  0  0  0  0
  6  7  2  0  0  0  0
  7  8  1  0  0  0  0
  8  9  2  0  0  0  0
  9 10  1  0  0  0  0
 10 11  2  0  0  0  0
 11 12  1  0  0  0  0
 12 13  2  0  0  0  0
 13 14  1  0  0  0  0
 14 15  2  0  0  0  0
  6 15  1  0  0  0  0
 10 15  1  0  0  0  0
 16 17  2  0  0  0  0
 17 18  1  0  0  0  0
 18 19  2  0  0  0  0
 19 20  1  0  0  0  0
 20 21  1  0  0  0  0
 20 22  2  0  0  0  0
 16 22  1  0  0  0  0
 26 27  2  0  0  0  0
 26 28  1  0  0  0  0
 28 30  1  0  0  0  0
 28 29  1  0  0  0  0
 30 31  1  0  0  0  0
M  END
$$$$
Mol_53
  PyMOL2.5          3D                             0

 33 36  0  0  0  0  0  0  0  0999 V2000
   -8.2349   -0.1392  -23.4869 N   0  0  0  0  0  0  0  0  0  0  0  0
   -8.0976   -0.3509  -22.1092 C   0  0  0  0  0  0  0  0  0  0  0  0
   -8.6735    0.5274  -21.3431 O   0  0  0  0  0  0  0  0  0  0  0  0
   -7.6365   -2.8803  -25.9358 C   0  0  0  0  0  0  0  0  0  0  0  0
   -6.6038   -2.4190  -26.7030 C   0  0  0  0  0  0  0  0  0  0  0  0
   -6.0887   -1.1863  -26.3927 C   0  0  0  0  0  0  0  0  0  0  0  0
   -6.6106   -0.4428  -25.3303 C   0  0  0  0  0  0  0  0  0  0  0  0
   -7.6493   -0.8787  -24.5406 C   0  0  0  0  0  0  0  0  0  0  0  0
   -8.1492   -2.1441  -24.8889 C   0  0  0  0  0  0  0  0  0  0  0  0
   -9.1125   -4.2067  -27.3224 C   0  0  0  0  0  0  0  0  0  0  0  0
   -9.4137   -3.1213  -27.9088 O   0  0  0  0  0  0  0  0  0  0  0  0
   -8.1715   -4.1671  -26.2574 N   0  0  0  0  0  0  0  0  0  0  0  0
   -7.9035   -4.9790  -25.7692 H   0  0  0  0  0  0  0  0  0  0  0  0
  -10.4055   -6.1704  -26.5452 C   0  0  0  0  0  0  0  0  0  0  0  0
   -9.7323   -5.4968  -27.7409 C   0  0  0  0  0  0  0  0  0  0  0  0
   -9.1320    0.9747  -23.8726 C   0  0  0  0  0  0  0  0  0  0  0  0
  -10.5647    0.6346  -23.7422 C   0  0  0  0  0  0  0  0  0  0  0  0
  -11.5683    1.5729  -23.6111 C   0  0  0  0  0  0  0  0  0  0  0  0
  -12.9157    1.2137  -23.4802 C   0  0  0  0  0  0  0  0  0  0  0  0
  -13.3027   -0.0987  -23.4760 C   0  0  0  0  0  0  0  0  0  0  0  0
  -12.3191   -1.0492  -23.6049 C   0  0  0  0  0  0  0  0  0  0  0  0
  -10.9907   -0.6991  -23.7340 C   0  0  0  0  0  0  0  0  0  0  0  0
   -7.4106   -1.3987  -21.3594 C   0  0  0  0  0  0  0  0  0  0  0  0
   -6.5797   -0.7910  -20.2483 C   0  0  0  0  0  0  0  0  0  0  0  0
   -6.9417   -0.8656  -18.9333 C   0  0  0  0  0  0  0  0  0  0  0  0
   -6.1952   -0.3248  -17.9758 N   0  0  0  0  0  0  0  0  0  0  0  0
   -5.0424    0.3304  -18.2032 C   0  0  0  0  0  0  0  0  0  0  0  0
   -4.6335    0.4325  -19.5206 C   0  0  0  0  0  0  0  0  0  0  0  0
   -3.4530    1.0995  -19.7940 C   0  0  0  0  0  0  0  0  0  0  0  0
   -3.0310    1.2103  -21.1056 C   0  0  0  0  0  0  0  0  0  0  0  0
   -3.7907    0.6561  -22.1182 C   0  0  0  0  0  0  0  0  0  0  0  0
   -4.9629   -0.0074  -21.8575 C   0  0  0  0  0  0  0  0  0  0  0  0
   -5.3938   -0.1243  -20.5524 C   0  0  0  0  0  0  0  0  0  0  0  0
 14 15  1  0  0  0  0
 10 15  1  0  0  0  0
 10 11  2  0  0  0  0
 10 12  1  0  0  0  0
  4 12  1  0  0  0  0
 12 13  1  0  0  0  0
  4  5  2  0  0  0  0
  5  6  1  0  0  0  0
  6  7  2  0  0  0  0
  7  8  1  0  0  0  0
  1  8  1  0  0  0  0
  8  9  2  0  0  0  0
  1 16  1  0  0  0  0
  1  2  1  0  0  0  0
 16 17  1  0  0  0  0
 17 18  2  0  0  0  0
 18 19  1  0  0  0  0
 19 20  2  0  0  0  0
 20 21  1  0  0  0  0
 21 22  2  0  0  0  0
 17 22  1  0  0  0  0
  2  3  2  0  0  0  0
  2 23  1  0  0  0  0
 23 24  1  0  0  0  0
 24 25  2  0  0  0  0
 25 26  1  0  0  0  0
 26 27  2  0  0  0  0
 27 28  1  0  0  0  0
 28 29  2  0  0  0  0
 29 30  1  0  0  0  0
 30 31  2  0  0  0  0
 31 32  1  0  0  0  0
 32 33  2  0  0  0  0
 24 33  1  0  0  0  0
 28 33  1  0  0  0  0
  4  9  1  0  0  0  0
M  END
$$$$
Mol_54
  PyMOL2.5          3D                             0

 35 39  0  0  0  0  0  0  0  0999 V2000
   -9.2416    2.3033  -23.8218 N   0  0  0  0  0  0  0  0  0  0  0  0
   -8.6760    1.3757  -22.8608 C   0  0  0  0  0  0  0  0  0  0  0  0
   -9.1472    0.0019  -23.1693 C   0  0  0  0  0  0  0  0  0  0  0  0
   -8.6823   -1.0459  -22.2203 C   0  0  0  0  0  0  0  0  0  0  0  0
   -8.7651   -0.9988  -20.9647 O   0  0  0  0  0  0  0  0  0  0  0  0
   -8.1115   -2.1455  -22.9642 N   0  0  0  0  0  0  0  0  0  0  0  0
   -8.6598   -2.0080  -24.2970 C   0  0  0  0  0  0  0  0  0  0  0  0
   -8.5498   -0.4787  -24.4564 C   0  0  0  0  0  0  0  0  0  0  0  0
   -7.0762   -0.2023  -24.5124 C   0  0  0  0  0  0  0  0  0  0  0  0
  -10.6482    0.0060  -23.2309 C   0  0  0  0  0  0  0  0  0  0  0  0
  -11.3901   -1.1173  -22.8711 C   0  0  0  0  0  0  0  0  0  0  0  0
  -12.7838   -1.1214  -22.9674 C   0  0  0  0  0  0  0  0  0  0  0  0
  -13.7013   -2.5517  -22.5082 Cl  0  0  0  0  0  0  0  0  0  0  0  0
  -13.4605   -0.0105  -23.4216 C   0  0  0  0  0  0  0  0  0  0  0  0
  -12.7451    1.1069  -23.7793 C   0  0  0  0  0  0  0  0  0  0  0  0
  -11.3742    1.0840  -23.6739 C   0  0  0  0  0  0  0  0  0  0  0  0
  -10.6544    2.3065  -23.9948 C   0  0  0  0  0  0  0  0  0  0  0  0
  -11.2846    3.3218  -24.4107 O   0  0  0  0  0  0  0  0  0  0  0  0
   -7.2013   -3.1371  -22.4800 C   0  0  0  0  0  0  0  0  0  0  0  0
   -6.2395   -2.7870  -21.5233 C   0  0  0  0  0  0  0  0  0  0  0  0
   -5.3625   -3.6964  -21.0425 N   0  0  0  0  0  0  0  0  0  0  0  0
   -5.3792   -4.9714  -21.4635 C   0  0  0  0  0  0  0  0  0  0  0  0
   -6.2998   -5.3826  -22.4036 C   0  0  0  0  0  0  0  0  0  0  0  0
   -6.3425   -6.6805  -22.8567 C   0  0  0  0  0  0  0  0  0  0  0  0
   -7.2587   -7.1050  -23.7995 C   0  0  0  0  0  0  0  0  0  0  0  0
   -8.1441   -6.1755  -24.2816 C   0  0  0  0  0  0  0  0  0  0  0  0
   -8.0985   -4.8760  -23.8254 C   0  0  0  0  0  0  0  0  0  0  0  0
   -7.1960   -4.4365  -22.8897 C   0  0  0  0  0  0  0  0  0  0  0  0
   -8.4513    3.2406  -24.5960 C   0  0  0  0  0  0  0  0  0  0  0  0
   -9.5038    4.0820  -26.7391 N   0  0  0  0  0  0  0  0  0  0  0  0
   -8.8483    3.0046  -26.0392 C   0  0  0  0  0  0  0  0  0  0  0  0
   -8.6093    1.9013  -26.5991 O   0  0  0  0  0  0  0  0  0  0  0  0
   -9.6812    4.9361  -26.2828 H   0  0  0  0  0  0  0  0  0  0  0  0
  -11.2660    4.5400  -28.2929 C   0  0  0  0  0  0  0  0  0  0  0  0
   -9.8974    3.8955  -28.1154 C   0  0  0  0  0  0  0  0  0  0  0  0
 34 35  1  0  0  0  0
 30 35  1  0  0  0  0
 30 31  1  0  0  0  0
 30 33  1  0  0  0  0
 31 32  2  0  0  0  0
 29 31  1  0  0  0  0
  1 29  1  0  0  0  0
  1  2  1  0  0  0  0
  2  3  1  0  0  0  0
  3  4  1  0  0  0  0
  3 10  1  0  0  0  0
  4  5  2  0  0  0  0
  4  6  1  0  0  0  0
  6 19  1  0  0  0  0
  6  7  1  0  0  0  0
 19 20  2  0  0  0  0
 20 21  1  0  0  0  0
 21 22  2  0  0  0  0
 22 23  1  0  0  0  0
 23 24  2  0  0  0  0
 24 25  1  0  0  0  0
 25 26  2  0  0  0  0
 26 27  1  0  0  0  0
 27 28  2  0  0  0  0
 19 28  1  0  0  0  0
 23 28  1  0  0  0  0
  7  8  1  0  0  0  0
  8  9  1  0  0  0  0
  3  8  1  0  0  0  0
 10 11  2  0  0  0  0
 11 12  1  0  0  0  0
 12 13  1  0  0  0  0
 12 14  2  0  0  0  0
 14 15  1  0  0  0  0
 15 16  2  0  0  0  0
 16 17  1  0  0  0  0
 10 16  1  0  0  0  0
 17 18  2  0  0  0  0
  1 17  1  0  0  0  0
M  END
$$$$
Mol_55
  PyMOL2.5          3D                             0

 24 27  0  0  0  0  0  0  0  0999 V2000
   -6.3465   -5.6278  -22.8318 C   0  0  0  0  0  0  0  0  0  0  0  0
   -6.3652   -4.2705  -22.3197 N   0  0  0  0  0  0  0  0  0  0  0  0
   -6.9468   -3.2221  -22.9265 C   0  0  0  0  0  0  0  0  0  0  0  0
   -6.7575   -2.1319  -22.1543 N   0  0  0  0  0  0  0  0  0  0  0  0
   -6.0686   -2.4705  -21.0730 N   0  0  0  0  0  0  0  0  0  0  0  0
   -5.8358   -3.7746  -21.1854 C   0  0  0  0  0  0  0  0  0  0  0  0
   -5.1983   -4.4528  -20.3312 O   0  0  0  0  0  0  0  0  0  0  0  0
   -5.7018   -1.5465  -20.0542 C   0  0  0  0  0  0  0  0  0  0  0  0
   -6.1513   -1.6453  -18.7544 C   0  0  0  0  0  0  0  0  0  0  0  0
   -5.7720   -0.7352  -17.8130 N   0  0  0  0  0  0  0  0  0  0  0  0
   -4.9506    0.2769  -18.1379 C   0  0  0  0  0  0  0  0  0  0  0  0
   -4.4724    0.4144  -19.4404 C   0  0  0  0  0  0  0  0  0  0  0  0
   -3.6200    1.4694  -19.7660 C   0  0  0  0  0  0  0  0  0  0  0  0
   -3.1537    1.5878  -21.0742 C   0  0  0  0  0  0  0  0  0  0  0  0
   -3.5275    0.6740  -22.0442 C   0  0  0  0  0  0  0  0  0  0  0  0
   -4.3764   -0.3693  -21.7020 C   0  0  0  0  0  0  0  0  0  0  0  0
   -4.8574   -0.5141  -20.4074 C   0  0  0  0  0  0  0  0  0  0  0  0
   -7.6892   -3.1608  -24.2134 C   0  0  0  0  0  0  0  0  0  0  0  0
   -6.8885   -2.5233  -25.2746 C   0  0  0  0  0  0  0  0  0  0  0  0
   -5.6965   -3.0265  -25.7535 C   0  0  0  0  0  0  0  0  0  0  0  0
   -5.0166   -2.3435  -26.7622 C   0  0  0  0  0  0  0  0  0  0  0  0
   -5.5334   -1.1598  -27.2866 C   0  0  0  0  0  0  0  0  0  0  0  0
   -6.7285   -0.6510  -26.8098 C   0  0  0  0  0  0  0  0  0  0  0  0
   -7.3879   -1.3394  -25.8118 C   0  0  0  0  0  0  0  0  0  0  0  0
  1  2  1  0  0  0  0
  2  3  1  0  0  0  0
  3 18  1  0  0  0  0
  3  4  2  0  0  0  0
 18 19  1  0  0  0  0
 19 20  2  0  0  0  0
 20 21  1  0  0  0  0
 21 22  2  0  0  0  0
 22 23  1  0  0  0  0
 23 24  2  0  0  0  0
 19 24  1  0  0  0  0
  4  5  1  0  0  0  0
  5  8  1  0  0  0  0
  5  6  1  0  0  0  0
  8  9  2  0  0  0  0
  9 10  1  0  0  0  0
 10 11  2  0  0  0  0
 11 12  1  0  0  0  0
 12 13  2  0  0  0  0
 13 14  1  0  0  0  0
 14 15  2  0  0  0  0
 15 16  1  0  0  0  0
 16 17  2  0  0  0  0
  8 17  1  0  0  0  0
 12 17  1  0  0  0  0
  6  7  2  0  0  0  0
  2  6  1  0  0  0  0
M  END
$$$$
Mol_56
  PyMOL2.5          3D                             0

 38 43  0  0  0  0  0  0  0  0999 V2000
   -8.5650   -2.5343  -22.7622 C   0  0  0  0  0  0  0  0  0  0  0  0
   -7.3234   -2.3977  -21.9484 C   0  0  0  0  0  0  0  0  0  0  0  0
   -7.3922   -1.0915  -21.2663 N   0  0  0  0  0  0  0  0  0  0  0  0
   -8.4935   -0.4038  -21.8272 C   0  0  0  0  0  0  0  0  0  0  0  0
   -8.9157    0.6962  -21.3400 O   0  0  0  0  0  0  0  0  0  0  0  0
   -9.0451   -1.1262  -23.0037 C   0  0  0  0  0  0  0  0  0  0  0  0
   -8.3430   -0.5026  -24.2020 C   0  0  0  0  0  0  0  0  0  0  0  0
   -8.7004    0.9194  -24.2033 N   0  0  0  0  0  0  0  0  0  0  0  0
  -10.1003    1.1869  -24.3385 C   0  0  0  0  0  0  0  0  0  0  0  0
  -10.5061    2.2219  -24.9092 O   0  0  0  0  0  0  0  0  0  0  0  0
  -10.9970    0.1727  -23.7664 C   0  0  0  0  0  0  0  0  0  0  0  0
  -12.3457    0.4093  -23.9133 C   0  0  0  0  0  0  0  0  0  0  0  0
  -13.2914   -0.4744  -23.4403 C   0  0  0  0  0  0  0  0  0  0  0  0
  -12.8207   -1.6069  -22.8131 C   0  0  0  0  0  0  0  0  0  0  0  0
  -13.9956   -2.7522  -22.2000 Cl  0  0  0  0  0  0  0  0  0  0  0  0
  -11.4465   -1.8483  -22.6629 C   0  0  0  0  0  0  0  0  0  0  0  0
  -10.4974   -0.9680  -23.1335 C   0  0  0  0  0  0  0  0  0  0  0  0
   -6.4764   -0.7079  -20.2535 C   0  0  0  0  0  0  0  0  0  0  0  0
   -6.5891   -1.2514  -18.9701 C   0  0  0  0  0  0  0  0  0  0  0  0
   -5.7271   -0.8986  -17.9980 N   0  0  0  0  0  0  0  0  0  0  0  0
   -4.7233   -0.0221  -18.1873 C   0  0  0  0  0  0  0  0  0  0  0  0
   -4.5643    0.5463  -19.4364 C   0  0  0  0  0  0  0  0  0  0  0  0
   -3.5321    1.4556  -19.6651 C   0  0  0  0  0  0  0  0  0  0  0  0
   -3.3692    2.0196  -20.9048 C   0  0  0  0  0  0  0  0  0  0  0  0
   -4.2497    1.6573  -21.8932 C   0  0  0  0  0  0  0  0  0  0  0  0
   -5.2602    0.7678  -21.6718 C   0  0  0  0  0  0  0  0  0  0  0  0
   -5.4476    0.1866  -20.4376 C   0  0  0  0  0  0  0  0  0  0  0  0
   -8.3920   -3.3031  -24.0181 C   0  0  0  0  0  0  0  0  0  0  0  0
  -10.1451   -3.9295  -25.4631 C   0  0  0  0  0  0  0  0  0  0  0  0
   -9.3128   -4.1790  -24.4307 O   0  0  0  0  0  0  0  0  0  0  0  0
   -7.7595    1.9826  -24.0930 C   0  0  0  0  0  0  0  0  0  0  0  0
   -7.0368    2.2418  -25.3757 C   0  0  0  0  0  0  0  0  0  0  0  0
   -5.6680    2.3374  -25.5304 C   0  0  0  0  0  0  0  0  0  0  0  0
   -5.4724    2.5756  -26.8448 N   0  3  0  0  0  0  0  0  0  0  0  0
   -6.6567    2.6265  -27.4800 C   0  0  0  0  0  0  0  0  0  0  0  0
   -7.6404    2.4211  -26.5825 N   0  0  0  0  0  0  0  0  0  0  0  0
   -4.5944    2.6943  -27.2739 H   0  0  0  0  0  0  0  0  0  0  0  0
   -8.6078    2.4040  -26.7642 H   0  0  0  0  0  0  0  0  0  0  0  0
 29 30  1  0  0  0  0
 28 30  1  0  0  0  0
  1 28  1  0  0  0  0
  1  2  1  0  0  0  0
  2  3  1  0  0  0  0
  3 18  1  0  0  0  0
  3  4  1  0  0  0  0
 18 19  2  0  0  0  0
 19 20  1  0  0  0  0
 20 21  2  0  0  0  0
 21 22  1  0  0  0  0
 22 23  2  0  0  0  0
 23 24  1  0  0  0  0
 24 25  2  0  0  0  0
 25 26  1  0  0  0  0
 26 27  2  0  0  0  0
 18 27  1  0  0  0  0
 22 27  1  0  0  0  0
  4  5  2  0  0  0  0
  4  6  1  0  0  0  0
  6  7  1  0  0  0  0
  1  6  1  0  0  0  0
  7  8  1  0  0  0  0
  8 31  1  0  0  0  0
  8  9  1  0  0  0  0
 31 32  1  0  0  0  0
 32 33  2  0  0  0  0
 33 34  1  0  0  0  0
 34 35  2  0  0  0  0
 34 37  1  0  0  0  0
 35 36  1  0  0  0  0
 32 36  1  0  0  0  0
 36 38  1  0  0  0  0
  9 10  2  0  0  0  0
  9 11  1  0  0  0  0
 11 12  2  0  0  0  0
 12 13  1  0  0  0  0
 13 14  2  0  0  0  0
 14 15  1  0  0  0  0
 14 16  1  0  0  0  0
 16 17  2  0  0  0  0
 11 17  1  0  0  0  0
  6 17  1  0  0  0  0
M  END
$$$$
Mol_57
  PyMOL2.5          3D                             0

 35 40  0  0  0  0  0  0  0  0999 V2000
   -5.9494   -2.7122  -22.4587 C   0  0  0  0  0  0  0  0  0  0  0  0
   -7.3009   -2.6588  -23.0779 C   0  0  0  0  0  0  0  0  0  0  0  0
   -8.1573   -1.5098  -22.6727 C   0  0  0  0  0  0  0  0  0  0  0  0
   -9.1354   -1.4194  -23.7653 N   0  0  0  0  0  0  0  0  0  0  0  0
   -8.7419   -2.3002  -24.8210 C   0  0  0  0  0  0  0  0  0  0  0  0
   -9.5001   -2.7374  -25.7148 O   0  0  0  0  0  0  0  0  0  0  0  0
   -7.2903   -2.5436  -24.5916 C   0  0  0  0  0  0  0  0  0  0  0  0
   -6.5757   -1.3105  -25.0631 C   0  0  0  0  0  0  0  0  0  0  0  0
   -5.1441   -1.4701  -25.1783 N   0  0  0  0  0  0  0  0  0  0  0  0
   -4.6675   -2.6805  -25.7505 C   0  0  0  0  0  0  0  0  0  0  0  0
   -3.5080   -2.7074  -26.2526 O   0  0  0  0  0  0  0  0  0  0  0  0
   -5.5386   -3.8583  -25.7387 C   0  0  0  0  0  0  0  0  0  0  0  0
   -5.0225   -5.0090  -26.3095 C   0  0  0  0  0  0  0  0  0  0  0  0
   -5.8239   -6.1411  -26.3135 C   0  0  0  0  0  0  0  0  0  0  0  0
   -7.0882   -6.1114  -25.7659 C   0  0  0  0  0  0  0  0  0  0  0  0
   -7.8456   -7.2429  -25.7885 F   0  0  0  0  0  0  0  0  0  0  0  0
   -7.5631   -4.9252  -25.2019 C   0  0  0  0  0  0  0  0  0  0  0  0
   -6.7998   -3.7977  -25.1830 C   0  0  0  0  0  0  0  0  0  0  0  0
  -10.2748   -0.5624  -23.7071 C   0  0  0  0  0  0  0  0  0  0  0  0
  -10.0979    0.7574  -24.0684 C   0  0  0  0  0  0  0  0  0  0  0  0
  -11.1050    1.6236  -24.0432 N   0  0  0  0  0  0  0  0  0  0  0  0
  -12.3270    1.1851  -23.6515 C   0  0  0  0  0  0  0  0  0  0  0  0
  -12.5463   -0.1178  -23.2843 C   0  0  0  0  0  0  0  0  0  0  0  0
  -13.8081   -0.5061  -22.8953 C   0  0  0  0  0  0  0  0  0  0  0  0
  -14.0147   -1.8196  -22.5285 C   0  0  0  0  0  0  0  0  0  0  0  0
  -12.9606   -2.7336  -22.5530 C   0  0  0  0  0  0  0  0  0  0  0  0
  -11.6886   -2.3400  -22.9456 C   0  0  0  0  0  0  0  0  0  0  0  0
  -11.5244   -1.0159  -23.3052 C   0  0  0  0  0  0  0  0  0  0  0  0
   -4.2236   -0.4343  -24.7271 C   0  0  0  0  0  0  0  0  0  0  0  0
   -4.6367    0.1670  -23.4553 C   0  0  0  0  0  0  0  0  0  0  0  0
   -3.9182   -0.1409  -22.3415 N   0  0  0  0  0  0  0  0  0  0  0  0
   -4.2204    0.3592  -21.1398 C   0  0  0  0  0  0  0  0  0  0  0  0
   -5.2862    1.2091  -21.0199 C   0  0  0  0  0  0  0  0  0  0  0  0
   -6.0328    1.5382  -22.1354 C   0  0  0  0  0  0  0  0  0  0  0  0
   -5.6818    1.0033  -23.3243 N   0  0  0  0  0  0  0  0  0  0  0  0
  1  2  1  0  0  0  0
  2  3  1  0  0  0  0
  3  4  1  0  0  0  0
  4 19  1  0  0  0  0
  4  5  1  0  0  0  0
 19 20  2  0  0  0  0
 20 21  1  0  0  0  0
 21 22  2  0  0  0  0
 22 23  1  0  0  0  0
 23 24  2  0  0  0  0
 24 25  1  0  0  0  0
 25 26  2  0  0  0  0
 26 27  1  0  0  0  0
 27 28  2  0  0  0  0
 19 28  1  0  0  0  0
 23 28  1  0  0  0  0
  5  6  2  0  0  0  0
  5  7  1  0  0  0  0
  7  8  1  0  0  0  0
  2  7  1  0  0  0  0
  8  9  1  0  0  0  0
  9 29  1  0  0  0  0
  9 10  1  0  0  0  0
 29 30  1  0  0  0  0
 30 31  2  0  0  0  0
 31 32  1  0  0  0  0
 32 33  2  0  0  0  0
 33 34  1  0  0  0  0
 34 35  2  0  0  0  0
 30 35  1  0  0  0  0
 10 11  2  0  0  0  0
 10 12  1  0  0  0  0
 12 13  2  0  0  0  0
 13 14  1  0  0  0  0
 14 15  2  0  0  0  0
 15 16  1  0  0  0  0
 15 17  1  0  0  0  0
 17 18  2  0  0  0  0
 12 18  1  0  0  0  0
  7 18  1  0  0  0  0
M  END
$$$$
Mol_58
  PyMOL2.5          3D                             0

 35 39  0  0  0  0  0  0  0  0999 V2000
   -7.1267   -3.3461  -22.3099 N   0  0  0  0  0  0  0  0  0  0  0  0
   -8.1021   -2.3049  -22.5733 C   0  0  0  0  0  0  0  0  0  0  0  0
   -7.5329   -0.9790  -22.9415 C   0  0  0  0  0  0  0  0  0  0  0  0
   -8.5664    0.0552  -22.5913 C   0  0  0  0  0  0  0  0  0  0  0  0
   -8.5985    0.8320  -21.6108 O   0  0  0  0  0  0  0  0  0  0  0  0
   -9.5270   -0.0274  -23.6252 N   0  0  0  0  0  0  0  0  0  0  0  0
   -8.9121   -0.6206  -24.7976 C   0  0  0  0  0  0  0  0  0  0  0  0
   -7.4671   -0.8634  -24.4048 C   0  0  0  0  0  0  0  0  0  0  0  0
   -6.6881    0.3237  -24.9124 C   0  0  0  0  0  0  0  0  0  0  0  0
   -7.0700   -2.1426  -25.1287 C   0  0  0  0  0  0  0  0  0  0  0  0
   -6.3455   -0.6578  -22.1572 C   0  0  0  0  0  0  0  0  0  0  0  0
   -5.8978    0.6596  -22.0349 C   0  0  0  0  0  0  0  0  0  0  0  0
   -4.7780    0.9878  -21.2998 C   0  0  0  0  0  0  0  0  0  0  0  0
   -4.2552    2.6564  -21.1758 Cl  0  0  0  0  0  0  0  0  0  0  0  0
   -4.0373    0.0259  -20.6431 C   0  0  0  0  0  0  0  0  0  0  0  0
   -4.4646   -1.2813  -20.7527 C   0  0  0  0  0  0  0  0  0  0  0  0
   -5.5792   -1.6016  -21.4852 C   0  0  0  0  0  0  0  0  0  0  0  0
   -5.9649   -3.0090  -21.5489 C   0  0  0  0  0  0  0  0  0  0  0  0
   -5.3019   -3.8848  -20.9589 O   0  0  0  0  0  0  0  0  0  0  0  0
  -10.8885    0.3833  -23.5914 C   0  0  0  0  0  0  0  0  0  0  0  0
  -11.2041    1.6911  -23.9215 C   0  0  0  0  0  0  0  0  0  0  0  0
  -12.4722    2.1540  -23.9125 N   0  0  0  0  0  0  0  0  0  0  0  0
  -13.5165    1.3526  -23.5754 C   0  0  0  0  0  0  0  0  0  0  0  0
  -13.2225    0.0456  -23.2431 C   0  0  0  0  0  0  0  0  0  0  0  0
  -14.2876   -0.7678  -22.9005 C   0  0  0  0  0  0  0  0  0  0  0  0
  -14.0259   -2.0806  -22.5631 C   0  0  0  0  0  0  0  0  0  0  0  0
  -12.7340   -2.5720  -22.5668 C   0  0  0  0  0  0  0  0  0  0  0  0
  -11.6637   -1.7561  -22.9107 C   0  0  0  0  0  0  0  0  0  0  0  0
  -11.9264   -0.4529  -23.2452 C   0  0  0  0  0  0  0  0  0  0  0  0
   -7.2805   -4.6976  -22.7805 C   0  0  0  0  0  0  0  0  0  0  0  0
   -4.1202   -6.7829  -23.1729 C   0  0  0  0  0  0  0  0  0  0  0  0
   -5.3542   -6.2452  -22.5889 N   0  0  0  0  0  0  0  0  0  0  0  0
   -6.0218   -5.2532  -23.3652 C   0  0  0  0  0  0  0  0  0  0  0  0
   -5.5695   -4.8729  -24.4789 O   0  0  0  0  0  0  0  0  0  0  0  0
   -5.6985   -6.5495  -21.7181 H   0  0  0  0  0  0  0  0  0  0  0  0
 31 32  1  0  0  0  0
 32 33  1  0  0  0  0
 32 35  1  0  0  0  0
 33 34  2  0  0  0  0
 30 33  1  0  0  0  0
  1 30  1  0  0  0  0
  1  2  1  0  0  0  0
  2  3  1  0  0  0  0
  3  4  1  0  0  0  0
  3 11  1  0  0  0  0
  4  5  2  0  0  0  0
  4  6  1  0  0  0  0
  6 20  1  0  0  0  0
  6  7  1  0  0  0  0
 20 21  2  0  0  0  0
 21 22  1  0  0  0  0
 22 23  2  0  0  0  0
 23 24  1  0  0  0  0
 24 25  2  0  0  0  0
 25 26  1  0  0  0  0
 26 27  2  0  0  0  0
 27 28  1  0  0  0  0
 28 29  2  0  0  0  0
 20 29  1  0  0  0  0
 24 29  1  0  0  0  0
  7  8  1  0  0  0  0
  8  9  1  0  0  0  0
  8 10  1  0  0  0  0
  3  8  1  0  0  0  0
 11 12  2  0  0  0  0
 12 13  1  0  0  0  0
 13 14  1  0  0  0  0
 13 15  2  0  0  0  0
 15 16  1  0  0  0  0
 16 17  2  0  0  0  0
 17 18  1  0  0  0  0
 11 17  1  0  0  0  0
 18 19  2  0  0  0  0
  1 18  1  0  0  0  0
M  END
$$$$
Mol_59
  PyMOL2.5          3D                             0

 27 30  0  0  0  0  0  0  0  0999 V2000
   -6.6792   -2.3192  -22.5492 C   0  0  0  0  0  0  0  0  0  0  0  0
   -7.6473   -1.6442  -22.1056 O   0  0  0  0  0  0  0  0  0  0  0  0
   -5.4612   -2.2668  -21.8168 N   0  0  0  0  0  0  0  0  0  0  0  0
   -4.6952   -2.7861  -22.1529 H   0  0  0  0  0  0  0  0  0  0  0  0
   -8.2662   -3.0565  -27.0819 C   0  0  0  0  0  0  0  0  0  0  0  0
   -8.2441   -3.5188  -25.7021 N   0  0  0  0  0  0  0  0  0  0  0  0
   -8.0451   -2.6632  -24.5765 C   0  0  0  0  0  0  0  0  0  0  0  0
   -6.8109   -3.1506  -23.8036 C   0  0  0  0  0  0  0  0  0  0  0  0
   -6.9825   -4.5745  -23.5403 C   0  0  0  0  0  0  0  0  0  0  0  0
   -6.3216   -5.1256  -22.4393 C   0  0  0  0  0  0  0  0  0  0  0  0
   -6.4222   -6.4535  -22.1067 C   0  0  0  0  0  0  0  0  0  0  0  0
   -5.5511   -7.0531  -20.6999 Cl  0  0  0  0  0  0  0  0  0  0  0  0
   -7.2027   -7.2862  -22.8818 C   0  0  0  0  0  0  0  0  0  0  0  0
   -7.8727   -6.7920  -23.9760 C   0  0  0  0  0  0  0  0  0  0  0  0
   -7.7451   -5.4518  -24.2762 C   0  0  0  0  0  0  0  0  0  0  0  0
   -8.4364   -4.9180  -25.4436 C   0  0  0  0  0  0  0  0  0  0  0  0
   -9.1652   -5.6205  -26.1980 O   0  0  0  0  0  0  0  0  0  0  0  0
   -5.2864   -1.5101  -20.6312 C   0  0  0  0  0  0  0  0  0  0  0  0
   -5.8573   -2.0019  -19.4517 C   0  0  0  0  0  0  0  0  0  0  0  0
   -5.7449   -1.3608  -18.2882 N   0  0  0  0  0  0  0  0  0  0  0  0
   -5.0721   -0.2184  -18.2343 C   0  0  0  0  0  0  0  0  0  0  0  0
   -4.4734    0.3460  -19.3453 C   0  0  0  0  0  0  0  0  0  0  0  0
   -3.7690    1.5293  -19.3050 C   0  0  0  0  0  0  0  0  0  0  0  0
   -3.1701    2.0761  -20.4429 C   0  0  0  0  0  0  0  0  0  0  0  0
   -3.3093    1.3785  -21.6341 C   0  0  0  0  0  0  0  0  0  0  0  0
   -4.0143    0.2028  -21.6532 C   0  0  0  0  0  0  0  0  0  0  0  0
   -4.6042   -0.3354  -20.5332 C   0  0  0  0  0  0  0  0  0  0  0  0
  5  6  1  0  0  0  0
  6  7  1  0  0  0  0
  7  8  1  0  0  0  0
  1  8  1  0  0  0  0
  8  9  1  0  0  0  0
  1  2  2  0  0  0  0
  1  3  1  0  0  0  0
  3 18  1  0  0  0  0
  3  4  1  0  0  0  0
 18 19  2  0  0  0  0
 19 20  1  0  0  0  0
 20 21  2  0  0  0  0
 21 22  1  0  0  0  0
 22 23  2  0  0  0  0
 23 24  1  0  0  0  0
 24 25  2  0  0  0  0
 25 26  1  0  0  0  0
 26 27  2  0  0  0  0
 18 27  1  0  0  0  0
 22 27  1  0  0  0  0
  9 10  2  0  0  0  0
 10 11  1  0  0  0  0
 11 12  1  0  0  0  0
 11 13  2  0  0  0  0
 13 14  1  0  0  0  0
 14 15  2  0  0  0  0
 15 16  1  0  0  0  0
  9 15  1  0  0  0  0
 16 17  2  0  0  0  0
  6 16  1  0  0  0  0
M  END
$$$$
Mol_60
  PyMOL2.5          3D                             0

 39 44  0  0  0  0  0  0  0  0999 V2000
   -8.6499   -3.3638  -23.8960 N   0  0  0  0  0  0  0  0  0  0  0  0
   -7.7786   -2.6372  -23.0326 C   0  0  0  0  0  0  0  0  0  0  0  0
   -8.2118   -1.2601  -22.7579 C   0  0  0  0  0  0  0  0  0  0  0  0
   -7.3928   -0.3841  -23.7115 C   0  0  0  0  0  0  0  0  0  0  0  0
   -7.8046    0.2433  -24.7052 O   0  0  0  0  0  0  0  0  0  0  0  0
   -6.0773   -0.4866  -23.1592 N   0  0  0  0  0  0  0  0  0  0  0  0
   -6.1588   -0.8609  -21.7545 C   0  0  0  0  0  0  0  0  0  0  0  0
   -7.6681   -0.7075  -21.4572 C   0  0  0  0  0  0  0  0  0  0  0  0
   -9.5962   -0.9753  -23.0449 C   0  0  0  0  0  0  0  0  0  0  0  0
  -10.1205    0.2517  -22.6319 C   0  0  0  0  0  0  0  0  0  0  0  0
  -11.4582    0.5834  -22.8837 C   0  0  0  0  0  0  0  0  0  0  0  0
  -12.1078    2.1359  -22.3566 Cl  0  0  0  0  0  0  0  0  0  0  0  0
  -12.3159   -0.2670  -23.5411 C   0  0  0  0  0  0  0  0  0  0  0  0
  -11.8046   -1.4759  -23.9500 C   0  0  0  0  0  0  0  0  0  0  0  0
  -10.5008   -1.7877  -23.6995 C   0  0  0  0  0  0  0  0  0  0  0  0
  -10.0069   -3.0758  -24.1633 C   0  0  0  0  0  0  0  0  0  0  0  0
  -10.7299   -3.8917  -24.7656 O   0  0  0  0  0  0  0  0  0  0  0  0
   -4.8854   -0.2477  -23.9097 C   0  0  0  0  0  0  0  0  0  0  0  0
   -4.0780    0.8555  -23.6270 C   0  0  0  0  0  0  0  0  0  0  0  0
   -2.9504    1.1119  -24.3115 N   0  0  0  0  0  0  0  0  0  0  0  0
   -2.5228    0.3345  -25.3061 C   0  0  0  0  0  0  0  0  0  0  0  0
   -3.3045   -0.7767  -25.6160 C   0  0  0  0  0  0  0  0  0  0  0  0
   -2.8546   -1.5744  -26.6454 C   0  0  0  0  0  0  0  0  0  0  0  0
   -3.6239   -2.6781  -26.9590 C   0  0  0  0  0  0  0  0  0  0  0  0
   -4.7887   -2.9919  -26.2931 C   0  0  0  0  0  0  0  0  0  0  0  0
   -5.2185   -2.1771  -25.2653 C   0  0  0  0  0  0  0  0  0  0  0  0
   -4.4679   -1.0693  -24.9334 C   0  0  0  0  0  0  0  0  0  0  0  0
   -8.0946   -4.5471  -24.5660 C   0  0  0  0  0  0  0  0  0  0  0  0
   -9.5223   -5.6773  -28.0139 C   0  0  0  0  0  0  0  0  0  0  0  0
   -9.1959   -5.6483  -26.6003 N   0  0  0  0  0  0  0  0  0  0  0  0
   -8.4445   -4.6128  -25.9917 C   0  0  0  0  0  0  0  0  0  0  0  0
   -8.0473   -3.6764  -26.7397 O   0  0  0  0  0  0  0  0  0  0  0  0
   -9.5137   -6.3880  -26.0336 H   0  0  0  0  0  0  0  0  0  0  0  0
   -7.9567   -1.4931  -20.2358 C   0  0  0  0  0  0  0  0  0  0  0  0
   -6.9510   -1.0708  -19.1818 C   0  0  0  0  0  0  0  0  0  0  0  0
   -6.8099    0.1428  -18.6297 N   0  0  0  0  0  0  0  0  0  0  0  0
   -5.8039    0.0630  -17.7509 N   0  0  0  0  0  0  0  0  0  0  0  0
   -5.3117   -1.1574  -17.7348 N   0  5  0  0  0  0  0  0  0  0  0  0
   -6.0105   -1.8384  -18.6031 N   0  0  0  0  0  0  0  0  0  0  0  0
 29 30  1  0  0  0  0
 30 31  1  0  0  0  0
 30 33  1  0  0  0  0
 31 32  2  0  0  0  0
 28 31  1  0  0  0  0
  1 28  1  0  0  0  0
  1  2  1  0  0  0  0
  2  3  1  0  0  0  0
  3  4  1  0  0  0  0
  3  9  1  0  0  0  0
  4  5  2  0  0  0  0
  4  6  1  0  0  0  0
  6 18  1  0  0  0  0
  6  7  1  0  0  0  0
 18 19  2  0  0  0  0
 19 20  1  0  0  0  0
 20 21  2  0  0  0  0
 21 22  1  0  0  0  0
 22 23  2  0  0  0  0
 23 24  1  0  0  0  0
 24 25  2  0  0  0  0
 25 26  1  0  0  0  0
 26 27  2  0  0  0  0
 18 27  1  0  0  0  0
 22 27  1  0  0  0  0
  7  8  1  0  0  0  0
  8 34  1  0  0  0  0
  3  8  1  0  0  0  0
 34 35  1  0  0  0  0
 35 36  1  0  0  0  0
 36 37  2  0  0  0  0
 37 38  1  0  0  0  0
 38 39  1  0  0  0  0
 35 39  2  0  0  0  0
  9 10  2  0  0  0  0
 10 11  1  0  0  0  0
 11 12  1  0  0  0  0
 11 13  2  0  0  0  0
 13 14  1  0  0  0  0
 14 15  2  0  0  0  0
 15 16  1  0  0  0  0
  9 15  1  0  0  0  0
 16 17  2  0  0  0  0
  1 16  1  0  0  0  0
M  END
$$$$
Mol_61
  PyMOL2.5          3D                             0

 36 41  0  0  0  0  0  0  0  0999 V2000
   -9.5437    2.6658  -23.8652 N   0  0  0  0  0  0  0  0  0  0  0  0
   -8.6194    1.7637  -23.2196 C   0  0  0  0  0  0  0  0  0  0  0  0
   -8.8908    0.3172  -23.4728 C   0  0  0  0  0  0  0  0  0  0  0  0
   -8.2279   -0.5158  -22.4316 C   0  0  0  0  0  0  0  0  0  0  0  0
   -8.5028   -0.4583  -21.2057 O   0  0  0  0  0  0  0  0  0  0  0  0
   -7.2634   -1.3573  -23.0472 N   0  0  0  0  0  0  0  0  0  0  0  0
   -6.9029   -0.7180  -24.2980 C   0  0  0  0  0  0  0  0  0  0  0  0
   -8.2792   -0.2094  -24.7361 C   0  0  0  0  0  0  0  0  0  0  0  0
   -8.0215    0.8321  -25.7811 C   0  0  0  0  0  0  0  0  0  0  0  0
  -10.3323   -0.0359  -23.3933 C   0  0  0  0  0  0  0  0  0  0  0  0
  -10.6953   -1.3568  -23.1625 C   0  0  0  0  0  0  0  0  0  0  0  0
  -12.0219   -1.7469  -23.0784 C   0  0  0  0  0  0  0  0  0  0  0  0
  -12.3987   -3.0189  -22.8559 F   0  0  0  0  0  0  0  0  0  0  0  0
  -13.0291   -0.7878  -23.2294 C   0  0  0  0  0  0  0  0  0  0  0  0
  -12.6647    0.5287  -23.4593 C   0  0  0  0  0  0  0  0  0  0  0  0
  -11.3337    0.9010  -23.5404 C   0  0  0  0  0  0  0  0  0  0  0  0
  -10.9380    2.3032  -23.7852 C   0  0  0  0  0  0  0  0  0  0  0  0
  -11.8383    3.1723  -23.9223 O   0  0  0  0  0  0  0  0  0  0  0  0
   -6.7693   -2.5851  -22.5103 C   0  0  0  0  0  0  0  0  0  0  0  0
   -5.8850   -2.5389  -21.4332 C   0  0  0  0  0  0  0  0  0  0  0  0
   -5.3901   -3.6824  -20.8908 N   0  0  0  0  0  0  0  0  0  0  0  0
   -5.7715   -4.8601  -21.4151 C   0  0  0  0  0  0  0  0  0  0  0  0
   -6.6439   -4.9361  -22.4793 C   0  0  0  0  0  0  0  0  0  0  0  0
   -6.9928   -6.1785  -22.9674 C   0  0  0  0  0  0  0  0  0  0  0  0
   -7.8682   -6.2198  -24.0334 C   0  0  0  0  0  0  0  0  0  0  0  0
   -8.3895   -5.0739  -24.6077 C   0  0  0  0  0  0  0  0  0  0  0  0
   -8.0405   -3.8251  -24.1191 C   0  0  0  0  0  0  0  0  0  0  0  0
   -7.1629   -3.7862  -23.0505 C   0  0  0  0  0  0  0  0  0  0  0  0
   -9.1564    3.8667  -24.5620 C   0  0  0  0  0  0  0  0  0  0  0  0
   -6.7987    4.7174  -24.0543 N   0  0  0  0  0  0  0  0  0  0  0  0
   -6.2458    5.5879  -23.2212 N   0  0  0  0  0  0  0  0  0  0  0  0
   -7.1966    6.1561  -22.4548 C   0  0  0  0  0  0  0  0  0  0  0  0
   -8.3902    5.5780  -22.8679 C   0  0  0  0  0  0  0  0  0  0  0  0
   -8.1224    4.6620  -23.8889 C   0  0  0  0  0  0  0  0  0  0  0  0
   -5.2710    2.8758  -24.2604 C   0  0  0  0  0  0  0  0  0  0  0  0
   -6.0440    3.9362  -25.0136 C   0  0  0  0  0  0  0  0  0  0  0  0
 35 36  1  0  0  0  0
 30 36  1  0  0  0  0
 30 31  1  0  0  0  0
 31 32  2  0  0  0  0
 32 33  1  0  0  0  0
 33 34  2  0  0  0  0
 29 34  1  0  0  0  0
 30 34  1  0  0  0  0
  1 29  1  0  0  0  0
  1  2  1  0  0  0  0
  2  3  1  0  0  0  0
  3  4  1  0  0  0  0
  3 10  1  0  0  0  0
  4  5  2  0  0  0  0
  4  6  1  0  0  0  0
  6 19  1  0  0  0  0
  6  7  1  0  0  0  0
 19 20  2  0  0  0  0
 20 21  1  0  0  0  0
 21 22  2  0  0  0  0
 22 23  1  0  0  0  0
 23 24  2  0  0  0  0
 24 25  1  0  0  0  0
 25 26  2  0  0  0  0
 26 27  1  0  0  0  0
 27 28  2  0  0  0  0
 19 28  1  0  0  0  0
 23 28  1  0  0  0  0
  7  8  1  0  0  0  0
  8  9  1  0  0  0  0
  3  8  1  0  0  0  0
 10 11  2  0  0  0  0
 11 12  1  0  0  0  0
 12 13  1  0  0  0  0
 12 14  2  0  0  0  0
 14 15  1  0  0  0  0
 15 16  2  0  0  0  0
 16 17  1  0  0  0  0
 10 16  1  0  0  0  0
 17 18  2  0  0  0  0
  1 17  1  0  0  0  0
M  END
$$$$
Mol_62
  PyMOL2.5          3D                             0

 22 25  0  0  0  0  0  0  0  0999 V2000
   -8.1857   -1.3815  -21.1994 O   0  0  0  0  0  0  0  0  0  0  0  0
   -7.5745   -2.2829  -21.8380 C   0  0  0  0  0  0  0  0  0  0  0  0
   -8.1825   -2.9866  -22.9308 N   0  0  0  0  0  0  0  0  0  0  0  0
   -7.4074   -3.9863  -23.5855 C   0  0  0  0  0  0  0  0  0  0  0  0
   -7.9951   -4.6378  -24.7713 C   0  0  0  0  0  0  0  0  0  0  0  0
   -9.2533   -4.1198  -25.3268 C   0  0  0  0  0  0  0  0  0  0  0  0
  -10.1547   -5.2544  -25.8549 C   0  0  0  0  0  0  0  0  0  0  0  0
   -9.2397   -5.2571  -27.0813 C   0  0  0  0  0  0  0  0  0  0  0  0
   -9.0789   -3.7555  -26.8138 C   0  0  0  0  0  0  0  0  0  0  0  0
   -9.9653   -3.0332  -24.6370 C   0  0  0  0  0  0  0  0  0  0  0  0
   -9.5163   -2.6398  -23.2834 C   0  0  0  0  0  0  0  0  0  0  0  0
   -6.1893   -2.5839  -21.4031 C   0  0  0  0  0  0  0  0  0  0  0  0
   -5.7473   -1.6666  -20.3475 C   0  0  0  0  0  0  0  0  0  0  0  0
   -6.1606   -1.8907  -19.0382 C   0  0  0  0  0  0  0  0  0  0  0  0
   -5.7844   -1.0783  -18.0226 N   0  0  0  0  0  0  0  0  0  0  0  0
   -4.9931   -0.0080  -18.2027 C   0  0  0  0  0  0  0  0  0  0  0  0
   -4.5576    0.2520  -19.4955 C   0  0  0  0  0  0  0  0  0  0  0  0
   -3.7488    1.3514  -19.6712 C   0  0  0  0  0  0  0  0  0  0  0  0
   -3.3078    1.6276  -20.9463 C   0  0  0  0  0  0  0  0  0  0  0  0
   -3.6843    0.8057  -21.9960 C   0  0  0  0  0  0  0  0  0  0  0  0
   -4.4947   -0.2988  -21.8285 C   0  0  0  0  0  0  0  0  0  0  0  0
   -4.9355   -0.5735  -20.5502 C   0  0  0  0  0  0  0  0  0  0  0  0
  1  2  2  0  0  0  0
  2 12  1  0  0  0  0
  2  3  1  0  0  0  0
 12 13  1  0  0  0  0
 13 14  2  0  0  0  0
 14 15  1  0  0  0  0
 15 16  2  0  0  0  0
 16 17  1  0  0  0  0
 17 18  2  0  0  0  0
 18 19  1  0  0  0  0
 19 20  2  0  0  0  0
 20 21  1  0  0  0  0
 21 22  2  0  0  0  0
 13 22  1  0  0  0  0
 17 22  1  0  0  0  0
  3  4  1  0  0  0  0
  4  5  1  0  0  0  0
  5  6  1  0  0  0  0
  6  7  1  0  0  0  0
  6 10  1  0  0  0  0
  7  8  1  0  0  0  0
  8  9  1  0  0  0  0
  6  9  1  0  0  0  0
 10 11  1  0  0  0  0
  3 11  1  0  0  0  0
M  END
$$$$
Mol_63
  PyMOL2.5          3D                             0

 22 25  0  0  0  0  0  0  0  0999 V2000
   -8.0860   -1.4607  -21.4980 O   0  0  0  0  0  0  0  0  0  0  0  0
   -7.3270   -2.3493  -21.9438 C   0  0  0  0  0  0  0  0  0  0  0  0
   -7.8057   -3.1443  -23.0177 N   0  0  0  0  0  0  0  0  0  0  0  0
   -9.1447   -2.9160  -23.5636 C   0  0  0  0  0  0  0  0  0  0  0  0
   -9.5148   -4.1055  -24.4253 C   0  0  0  0  0  0  0  0  0  0  0  0
   -8.6137   -4.2604  -25.6142 C   0  0  0  0  0  0  0  0  0  0  0  0
   -7.1878   -4.1995  -25.1443 C   0  0  0  0  0  0  0  0  0  0  0  0
   -7.0387   -4.2048  -23.6378 C   0  0  0  0  0  0  0  0  0  0  0  0
   -8.9500   -5.6013  -26.2435 C   0  0  0  0  0  0  0  0  0  0  0  0
   -9.4991   -5.5971  -27.6513 C   0  0  0  0  0  0  0  0  0  0  0  0
  -10.3749   -5.9684  -26.5037 C   0  0  0  0  0  0  0  0  0  0  0  0
   -5.9733   -2.5923  -21.3977 C   0  0  0  0  0  0  0  0  0  0  0  0
   -5.6576   -1.7035  -20.2552 C   0  0  0  0  0  0  0  0  0  0  0  0
   -6.0877   -1.9398  -18.9660 C   0  0  0  0  0  0  0  0  0  0  0  0
   -5.7462   -1.0633  -17.9803 N   0  0  0  0  0  0  0  0  0  0  0  0
   -5.0001    0.0192  -18.2550 C   0  0  0  0  0  0  0  0  0  0  0  0
   -4.5382    0.3130  -19.5239 C   0  0  0  0  0  0  0  0  0  0  0  0
   -3.7750    1.4255  -19.7948 C   0  0  0  0  0  0  0  0  0  0  0  0
   -3.3271    1.6905  -21.0858 C   0  0  0  0  0  0  0  0  0  0  0  0
   -3.6759    0.7992  -22.0792 C   0  0  0  0  0  0  0  0  0  0  0  0
   -4.4393   -0.3157  -21.8159 C   0  0  0  0  0  0  0  0  0  0  0  0
   -4.8914   -0.5862  -20.5220 C   0  0  0  0  0  0  0  0  0  0  0  0
  1  2  2  0  0  0  0
  2 12  1  0  0  0  0
  2  3  1  0  0  0  0
 12 13  1  0  0  0  0
 13 14  2  0  0  0  0
 14 15  1  0  0  0  0
 15 16  2  0  0  0  0
 16 17  1  0  0  0  0
 17 18  2  0  0  0  0
 18 19  1  0  0  0  0
 19 20  2  0  0  0  0
 20 21  1  0  0  0  0
 21 22  2  0  0  0  0
 13 22  1  0  0  0  0
 17 22  1  0  0  0  0
  3  4  1  0  0  0  0
  4  5  1  0  0  0  0
  5  6  1  0  0  0  0
  6  9  1  0  0  0  0
  6  7  1  0  0  0  0
  9 10  1  0  0  0  0
 10 11  1  0  0  0  0
  9 11  1  0  0  0  0
  7  8  1  0  0  0  0
  3  8  1  0  0  0  0
M  END
$$$$
Mol_64
  PyMOL2.5          3D                             0

 36 40  0  0  0  0  0  0  0  0999 V2000
   -9.1918    2.1937  -24.0368 N   0  0  0  0  0  0  0  0  0  0  0  0
   -8.4596    1.1557  -23.3805 C   0  0  0  0  0  0  0  0  0  0  0  0
   -9.0113   -0.2059  -23.5742 C   0  0  0  0  0  0  0  0  0  0  0  0
   -8.4789   -1.1755  -22.5601 C   0  0  0  0  0  0  0  0  0  0  0  0
   -8.5131   -0.9987  -21.3080 O   0  0  0  0  0  0  0  0  0  0  0  0
   -7.9350   -2.3121  -23.2015 N   0  0  0  0  0  0  0  0  0  0  0  0
   -8.4407   -2.2964  -24.5407 C   0  0  0  0  0  0  0  0  0  0  0  0
   -8.6296   -0.8423  -24.8652 C   0  0  0  0  0  0  0  0  0  0  0  0
  -10.4982   -0.1589  -23.4693 C   0  0  0  0  0  0  0  0  0  0  0  0
  -11.2192   -1.3114  -23.1150 C   0  0  0  0  0  0  0  0  0  0  0  0
  -12.6009   -1.3070  -23.0265 C   0  0  0  0  0  0  0  0  0  0  0  0
  -13.4656   -2.7857  -22.5774 Cl  0  0  0  0  0  0  0  0  0  0  0  0
  -13.3465   -0.1791  -23.2780 C   0  0  0  0  0  0  0  0  0  0  0  0
  -12.6568    0.9584  -23.6239 C   0  0  0  0  0  0  0  0  0  0  0  0
  -11.2730    0.9452  -23.7096 C   0  0  0  0  0  0  0  0  0  0  0  0
  -10.6358    2.2109  -24.0155 C   0  0  0  0  0  0  0  0  0  0  0  0
  -11.2902    3.2498  -24.2457 O   0  0  0  0  0  0  0  0  0  0  0  0
   -7.0761   -3.2562  -22.5422 C   0  0  0  0  0  0  0  0  0  0  0  0
   -6.1370   -2.8947  -21.6026 C   0  0  0  0  0  0  0  0  0  0  0  0
   -5.3190   -3.7893  -20.9919 N   0  0  0  0  0  0  0  0  0  0  0  0
   -5.3784   -5.0924  -21.2714 C   0  0  0  0  0  0  0  0  0  0  0  0
   -6.2914   -5.5316  -22.2005 C   0  0  0  0  0  0  0  0  0  0  0  0
   -6.3238   -6.8768  -22.4720 C   0  0  0  0  0  0  0  0  0  0  0  0
   -7.2147   -7.3719  -23.4015 C   0  0  0  0  0  0  0  0  0  0  0  0
   -8.0503   -6.4821  -24.0314 C   0  0  0  0  0  0  0  0  0  0  0  0
   -8.0067   -5.1369  -23.7490 C   0  0  0  0  0  0  0  0  0  0  0  0
   -7.1355   -4.6198  -22.8330 C   0  0  0  0  0  0  0  0  0  0  0  0
   -7.2972   -0.2701  -25.3729 C   0  0  0  0  0  0  0  0  0  0  0  0
   -7.4674    0.2266  -26.6469 O   0  0  0  0  0  0  0  0  0  0  0  0
   -7.7589   -0.4868  -27.2358 H   0  0  0  0  0  0  0  0  0  0  0  0
   -8.5991    3.3566  -24.6763 C   0  0  0  0  0  0  0  0  0  0  0  0
   -7.1234    5.7679  -22.0033 C   0  0  0  0  0  0  0  0  0  0  0  0
   -8.0846    4.9827  -22.7512 N   0  0  0  0  0  0  0  0  0  0  0  0
   -7.7283    4.1873  -23.8531 C   0  0  0  0  0  0  0  0  0  0  0  0
   -6.4811    4.1950  -24.1645 O   0  0  0  0  0  0  0  0  0  0  0  0
   -9.0293    5.0077  -22.4750 H   0  0  0  0  0  0  0  0  0  0  0  0
 32 33  1  0  0  0  0
 33 34  1  0  0  0  0
 33 36  1  0  0  0  0
 34 35  2  0  0  0  0
 31 34  1  0  0  0  0
  1 31  1  0  0  0  0
  1  2  1  0  0  0  0
  2  3  1  0  0  0  0
  3  4  1  0  0  0  0
  3  9  1  0  0  0  0
  4  5  2  0  0  0  0
  4  6  1  0  0  0  0
  6 18  1  0  0  0  0
  6  7  1  0  0  0  0
 18 19  2  0  0  0  0
 19 20  1  0  0  0  0
 20 21  2  0  0  0  0
 21 22  1  0  0  0  0
 22 23  2  0  0  0  0
 23 24  1  0  0  0  0
 24 25  2  0  0  0  0
 25 26  1  0  0  0  0
 26 27  2  0  0  0  0
 18 27  1  0  0  0  0
 22 27  1  0  0  0  0
  7  8  1  0  0  0  0
  8 28  1  0  0  0  0
  3  8  1  0  0  0  0
 28 29  1  0  0  0  0
 29 30  1  0  0  0  0
  9 10  2  0  0  0  0
 10 11  1  0  0  0  0
 11 12  1  0  0  0  0
 11 13  2  0  0  0  0
 13 14  1  0  0  0  0
 14 15  2  0  0  0  0
 15 16  1  0  0  0  0
  9 15  1  0  0  0  0
 16 17  2  0  0  0  0
  1 16  1  0  0  0  0
M  END
$$$$
Mol_65
  PyMOL2.5          3D                             0

 35 40  0  0  0  0  0  0  0  0999 V2000
   -8.0046    0.3080  -25.9289 C   0  0  0  0  0  0  0  0  0  0  0  0
   -8.5693   -0.3551  -24.6844 C   0  0  0  0  0  0  0  0  0  0  0  0
   -7.4023   -0.7442  -23.8347 C   0  0  0  0  0  0  0  0  0  0  0  0
   -7.3132    0.3244  -22.8495 N   0  0  0  0  0  0  0  0  0  0  0  0
   -8.6484    0.7644  -22.6342 C   0  0  0  0  0  0  0  0  0  0  0  0
   -9.1279    1.2333  -21.5459 O   0  0  0  0  0  0  0  0  0  0  0  0
   -9.4404    0.5974  -23.8985 C   0  0  0  0  0  0  0  0  0  0  0  0
   -9.4879    1.9640  -24.5198 C   0  0  0  0  0  0  0  0  0  0  0  0
  -10.6670    2.7294  -24.1701 N   0  0  0  0  0  0  0  0  0  0  0  0
  -11.9382    2.1341  -23.9307 C   0  0  0  0  0  0  0  0  0  0  0  0
  -12.9598    2.8338  -23.9582 O   0  0  0  0  0  0  0  0  0  0  0  0
  -11.9497    0.7000  -23.6619 C   0  0  0  0  0  0  0  0  0  0  0  0
  -13.1711    0.1093  -23.4269 C   0  0  0  0  0  0  0  0  0  0  0  0
  -13.2504   -1.2418  -23.1651 C   0  0  0  0  0  0  0  0  0  0  0  0
  -12.0778   -1.9605  -23.1493 C   0  0  0  0  0  0  0  0  0  0  0  0
  -12.1622   -3.2994  -22.8894 F   0  0  0  0  0  0  0  0  0  0  0  0
  -10.8402   -1.3516  -23.3894 C   0  0  0  0  0  0  0  0  0  0  0  0
  -10.7549    0.0017  -23.6523 C   0  0  0  0  0  0  0  0  0  0  0  0
   -6.1633    0.8571  -22.2052 C   0  0  0  0  0  0  0  0  0  0  0  0
   -5.3563    1.7483  -22.8845 C   0  0  0  0  0  0  0  0  0  0  0  0
   -4.2570    2.3043  -22.3712 N   0  0  0  0  0  0  0  0  0  0  0  0
   -3.9154    1.9743  -21.1125 C   0  0  0  0  0  0  0  0  0  0  0  0
   -4.6660    1.0928  -20.3661 C   0  0  0  0  0  0  0  0  0  0  0  0
   -4.2383    0.8154  -19.0871 C   0  0  0  0  0  0  0  0  0  0  0  0
   -5.0053   -0.0719  -18.3531 C   0  0  0  0  0  0  0  0  0  0  0  0
   -6.1461   -0.6409  -18.9029 C   0  0  0  0  0  0  0  0  0  0  0  0
   -6.5587   -0.3466  -20.1953 C   0  0  0  0  0  0  0  0  0  0  0  0
   -5.8008    0.5276  -20.9149 C   0  0  0  0  0  0  0  0  0  0  0  0
  -10.5868    4.1832  -24.0481 C   0  0  0  0  0  0  0  0  0  0  0  0
  -11.0289    4.8868  -25.2602 C   0  0  0  0  0  0  0  0  0  0  0  0
  -12.0090    5.8124  -25.2740 N   0  0  0  0  0  0  0  0  0  0  0  0
  -12.1517    6.2467  -26.5371 C   0  0  0  0  0  0  0  0  0  0  0  0
  -11.2499    5.5722  -27.2717 N   0  0  0  0  0  0  0  0  0  0  0  0
  -10.5613    4.7446  -26.5150 N   0  0  0  0  0  0  0  0  0  0  0  0
  -11.1224    5.6823  -28.2417 H   0  0  0  0  0  0  0  0  0  0  0  0
  1  2  1  0  0  0  0
  2  3  1  0  0  0  0
  3  4  1  0  0  0  0
  4 19  1  0  0  0  0
  4  5  1  0  0  0  0
 19 20  2  0  0  0  0
 20 21  1  0  0  0  0
 21 22  2  0  0  0  0
 22 23  1  0  0  0  0
 23 24  2  0  0  0  0
 24 25  1  0  0  0  0
 25 26  2  0  0  0  0
 26 27  1  0  0  0  0
 27 28  2  0  0  0  0
 19 28  1  0  0  0  0
 23 28  1  0  0  0  0
  5  6  2  0  0  0  0
  5  7  1  0  0  0  0
  7  8  1  0  0  0  0
  2  7  1  0  0  0  0
  8  9  1  0  0  0  0
  9 29  1  0  0  0  0
  9 10  1  0  0  0  0
 29 30  1  0  0  0  0
 30 31  1  0  0  0  0
 31 32  2  0  0  0  0
 32 33  1  0  0  0  0
 33 34  1  0  0  0  0
 33 35  1  0  0  0  0
 30 34  2  0  0  0  0
 10 11  2  0  0  0  0
 10 12  1  0  0  0  0
 12 13  2  0  0  0  0
 13 14  1  0  0  0  0
 14 15  2  0  0  0  0
 15 16  1  0  0  0  0
 15 17  1  0  0  0  0
 17 18  2  0  0  0  0
 12 18  1  0  0  0  0
  7 18  1  0  0  0  0
M  END
$$$$
Mol_66
  PyMOL2.5          3D                             0

 34 39  0  0  0  0  0  0  0  0999 V2000
   -7.3224   -1.7613  -24.1501 C   0  0  0  0  0  0  0  0  0  0  0  0
   -8.6002   -1.9159  -23.3210 C   0  0  0  0  0  0  0  0  0  0  0  0
   -8.1805   -2.2496  -21.9364 C   0  0  0  0  0  0  0  0  0  0  0  0
   -7.8225   -0.9645  -21.3673 N   0  0  0  0  0  0  0  0  0  0  0  0
   -8.7569   -0.0562  -21.9406 C   0  0  0  0  0  0  0  0  0  0  0  0
   -9.1407    1.0565  -21.4385 O   0  0  0  0  0  0  0  0  0  0  0  0
   -9.2394   -0.5908  -23.2376 C   0  0  0  0  0  0  0  0  0  0  0  0
   -8.7997    0.3292  -24.3839 C   0  0  0  0  0  0  0  0  0  0  0  0
   -9.3940    1.6495  -24.1689 N   0  0  0  0  0  0  0  0  0  0  0  0
  -10.8331    1.6720  -24.1701 C   0  0  0  0  0  0  0  0  0  0  0  0
  -11.4383    2.6946  -24.5599 O   0  0  0  0  0  0  0  0  0  0  0  0
  -11.4902    0.4571  -23.6987 C   0  0  0  0  0  0  0  0  0  0  0  0
  -12.8609    0.4382  -23.7195 C   0  0  0  0  0  0  0  0  0  0  0  0
  -13.5596   -0.6745  -23.3219 C   0  0  0  0  0  0  0  0  0  0  0  0
  -12.8358   -1.7672  -22.9031 C   0  0  0  0  0  0  0  0  0  0  0  0
  -13.5134   -2.8677  -22.5103 F   0  0  0  0  0  0  0  0  0  0  0  0
  -11.4505   -1.7431  -22.8836 C   0  0  0  0  0  0  0  0  0  0  0  0
  -10.7245   -0.6322  -23.2791 C   0  0  0  0  0  0  0  0  0  0  0  0
   -6.7909   -0.6360  -20.4449 C   0  0  0  0  0  0  0  0  0  0  0  0
   -6.7681   -1.0802  -19.1395 C   0  0  0  0  0  0  0  0  0  0  0  0
   -5.7471   -0.7165  -18.3352 N   0  0  0  0  0  0  0  0  0  0  0  0
   -4.7264    0.0766  -18.7534 C   0  0  0  0  0  0  0  0  0  0  0  0
   -4.7073    0.5390  -20.0354 C   0  0  0  0  0  0  0  0  0  0  0  0
   -3.6783    1.3377  -20.4547 C   0  0  0  0  0  0  0  0  0  0  0  0
   -3.6364    1.8209  -21.7547 C   0  0  0  0  0  0  0  0  0  0  0  0
   -4.6675    1.4652  -22.6002 C   0  0  0  0  0  0  0  0  0  0  0  0
   -5.6886    0.6666  -22.1666 C   0  0  0  0  0  0  0  0  0  0  0  0
   -5.7476    0.1750  -20.8737 C   0  0  0  0  0  0  0  0  0  0  0  0
   -8.6166    2.8318  -23.9804 C   0  0  0  0  0  0  0  0  0  0  0  0
   -7.8923    3.2408  -25.2287 C   0  0  0  0  0  0  0  0  0  0  0  0
   -6.5432    3.4363  -25.4117 C   0  0  0  0  0  0  0  0  0  0  0  0
   -6.3025    3.7909  -26.6537 O   0  0  0  0  0  0  0  0  0  0  0  0
   -7.4695    3.8275  -27.2737 C   0  0  0  0  0  0  0  0  0  0  0  0
   -8.4586    3.4950  -26.4239 N   0  0  0  0  0  0  0  0  0  0  0  0
  1  2  1  0  0  0  0
  2  3  1  0  0  0  0
  3  4  1  0  0  0  0
  4 19  1  0  0  0  0
  4  5  1  0  0  0  0
 19 20  2  0  0  0  0
 20 21  1  0  0  0  0
 21 22  2  0  0  0  0
 22 23  1  0  0  0  0
 23 24  2  0  0  0  0
 24 25  1  0  0  0  0
 25 26  2  0  0  0  0
 26 27  1  0  0  0  0
 27 28  2  0  0  0  0
 19 28  1  0  0  0  0
 23 28  1  0  0  0  0
  5  6  2  0  0  0  0
  5  7  1  0  0  0  0
  7  8  1  0  0  0  0
  2  7  1  0  0  0  0
  8  9  1  0  0  0  0
  9 29  1  0  0  0  0
  9 10  1  0  0  0  0
 29 30  1  0  0  0  0
 30 31  2  0  0  0  0
 31 32  1  0  0  0  0
 32 33  1  0  0  0  0
 33 34  2  0  0  0  0
 30 34  1  0  0  0  0
 10 11  2  0  0  0  0
 10 12  1  0  0  0  0
 12 13  2  0  0  0  0
 13 14  1  0  0  0  0
 14 15  2  0  0  0  0
 15 16  1  0  0  0  0
 15 17  1  0  0  0  0
 17 18  2  0  0  0  0
 12 18  1  0  0  0  0
  7 18  1  0  0  0  0
M  END
$$$$
Mol_67
  PyMOL2.5          3D                             0

 24 27  0  0  0  0  0  0  0  0999 V2000
   -7.1773   -4.2623  -23.4256 C   0  0  0  0  0  0  0  0  0  0  0  0
   -7.4688   -4.2282  -24.9120 C   0  0  0  0  0  0  0  0  0  0  0  0
   -6.6131   -4.4082  -25.9282 C   0  0  0  0  0  0  0  0  0  0  0  0
   -7.1003   -4.3344  -27.1998 C   0  0  0  0  0  0  0  0  0  0  0  0
   -8.9178   -3.9827  -27.0219 S   0  0  0  0  0  0  0  0  0  0  0  0
   -8.7904   -3.9795  -25.2284 C   0  0  0  0  0  0  0  0  0  0  0  0
   -9.8547   -3.7613  -24.2229 C   0  0  0  0  0  0  0  0  0  0  0  0
   -9.2980   -2.8719  -23.1396 C   0  0  0  0  0  0  0  0  0  0  0  0
   -7.9323   -3.1962  -22.8174 N   0  0  0  0  0  0  0  0  0  0  0  0
   -7.3042   -2.3811  -21.8123 C   0  0  0  0  0  0  0  0  0  0  0  0
   -8.0262   -1.4538  -21.3120 O   0  0  0  0  0  0  0  0  0  0  0  0
   -6.2332   -6.2682  -22.2732 C   0  0  0  0  0  0  0  0  0  0  0  0
   -7.4632   -5.6252  -22.8578 C   0  0  0  0  0  0  0  0  0  0  0  0
   -5.9070   -2.6011  -21.3815 C   0  0  0  0  0  0  0  0  0  0  0  0
   -5.5726   -1.6601  -20.2788 C   0  0  0  0  0  0  0  0  0  0  0  0
   -6.0018   -1.8713  -18.9837 C   0  0  0  0  0  0  0  0  0  0  0  0
   -5.7139   -1.0384  -17.9754 N   0  0  0  0  0  0  0  0  0  0  0  0
   -4.9856    0.0587  -18.1669 C   0  0  0  0  0  0  0  0  0  0  0  0
   -4.5229    0.3267  -19.4536 C   0  0  0  0  0  0  0  0  0  0  0  0
   -3.7627    1.4704  -19.6568 C   0  0  0  0  0  0  0  0  0  0  0  0
   -3.3122    1.7269  -20.9205 C   0  0  0  0  0  0  0  0  0  0  0  0
   -3.6012    0.8724  -21.9831 C   0  0  0  0  0  0  0  0  0  0  0  0
   -4.3496   -0.2594  -21.7984 C   0  0  0  0  0  0  0  0  0  0  0  0
   -4.8119   -0.5276  -20.5149 C   0  0  0  0  0  0  0  0  0  0  0  0
 12 13  1  0  0  0  0
  1 13  1  0  0  0  0
  1  2  1  0  0  0  0
  2  3  1  0  0  0  0
  3  4  2  0  0  0  0
  4  5  1  0  0  0  0
  5  6  1  0  0  0  0
  6  7  1  0  0  0  0
  2  6  2  0  0  0  0
  7  8  1  0  0  0  0
  8  9  1  0  0  0  0
  9 10  1  0  0  0  0
  1  9  1  0  0  0  0
 10 11  2  0  0  0  0
 10 14  1  0  0  0  0
 14 15  1  0  0  0  0
 15 16  2  0  0  0  0
 16 17  1  0  0  0  0
 17 18  2  0  0  0  0
 18 19  1  0  0  0  0
 19 20  2  0  0  0  0
 20 21  1  0  0  0  0
 21 22  2  0  0  0  0
 22 23  1  0  0  0  0
 23 24  2  0  0  0  0
 15 24  1  0  0  0  0
 19 24  1  0  0  0  0
M  END
$$$$
Mol_68
  PyMOL2.5          3D                             0

 35 40  0  0  0  0  0  0  0  0999 V2000
   -6.8352   -5.2851  -22.5990 N   0  0  0  0  0  0  0  0  0  0  0  0
   -7.6912   -4.1065  -22.6164 C   0  0  0  0  0  0  0  0  0  0  0  0
   -8.1203   -3.7063  -24.0028 C   0  0  0  0  0  0  0  0  0  0  0  0
   -6.9868   -2.9893  -24.6357 C   0  0  0  0  0  0  0  0  0  0  0  0
   -6.0503   -3.5866  -25.2189 O   0  0  0  0  0  0  0  0  0  0  0  0
   -7.1562   -1.5565  -24.4618 N   0  0  0  0  0  0  0  0  0  0  0  0
   -8.2099   -1.4377  -23.4958 C   0  0  0  0  0  0  0  0  0  0  0  0
   -9.1218   -2.6141  -23.8894 C   0  0  0  0  0  0  0  0  0  0  0  0
  -10.1946   -2.8746  -22.8815 C   0  0  0  0  0  0  0  0  0  0  0  0
   -8.5717   -4.8677  -24.7914 C   0  0  0  0  0  0  0  0  0  0  0  0
   -9.4252   -4.7376  -25.8828 C   0  0  0  0  0  0  0  0  0  0  0  0
   -9.8439   -5.8399  -26.6183 C   0  0  0  0  0  0  0  0  0  0  0  0
  -10.6752   -5.7054  -27.6798 F   0  0  0  0  0  0  0  0  0  0  0  0
   -9.4267   -7.1066  -26.2915 C   0  0  0  0  0  0  0  0  0  0  0  0
   -8.5910   -7.2578  -25.2269 C   0  0  0  0  0  0  0  0  0  0  0  0
   -8.1797   -6.1743  -24.5043 C   0  0  0  0  0  0  0  0  0  0  0  0
   -7.2878   -6.4005  -23.3802 C   0  0  0  0  0  0  0  0  0  0  0  0
   -6.8999   -7.5602  -23.0733 O   0  0  0  0  0  0  0  0  0  0  0  0
   -6.3893   -0.6488  -25.2174 C   0  0  0  0  0  0  0  0  0  0  0  0
   -6.8139   -0.3081  -26.5120 C   0  0  0  0  0  0  0  0  0  0  0  0
   -6.1271    0.5352  -27.2953 N   0  0  0  0  0  0  0  0  0  0  0  0
   -4.9816    1.1269  -26.9195 C   0  0  0  0  0  0  0  0  0  0  0  0
   -4.5223    0.8207  -25.6505 C   0  0  0  0  0  0  0  0  0  0  0  0
   -3.3404    1.4124  -25.2658 C   0  0  0  0  0  0  0  0  0  0  0  0
   -2.7918    1.1578  -24.0254 C   0  0  0  0  0  0  0  0  0  0  0  0
   -3.4904    0.2888  -23.2120 C   0  0  0  0  0  0  0  0  0  0  0  0
   -4.6727   -0.3028  -23.5967 C   0  0  0  0  0  0  0  0  0  0  0  0
   -5.2203   -0.0579  -24.8118 C   0  0  0  0  0  0  0  0  0  0  0  0
   -5.6002   -5.3502  -21.8465 C   0  0  0  0  0  0  0  0  0  0  0  0
   -5.4238   -0.8227  -19.7125 C   0  0  0  0  0  0  0  0  0  0  0  0
   -5.4126   -2.2895  -19.9173 C   0  0  0  0  0  0  0  0  0  0  0  0
   -5.5674   -2.9084  -21.1396 C   0  0  0  0  0  0  0  0  0  0  0  0
   -5.4898   -4.2714  -20.8516 C   0  0  0  0  0  0  0  0  0  0  0  0
   -5.3053   -4.4160  -19.5666 O   0  0  0  0  0  0  0  0  0  0  0  0
   -5.2566   -3.2606  -18.9953 N   0  0  0  0  0  0  0  0  0  0  0  0
 30 31  1  0  0  0  0
 31 32  1  0  0  0  0
 32 33  2  0  0  0  0
 29 33  1  0  0  0  0
 33 34  1  0  0  0  0
  1 29  1  0  0  0  0
  1  2  1  0  0  0  0
  2  3  1  0  0  0  0
  3  4  1  0  0  0  0
  3 10  1  0  0  0  0
  4  5  2  0  0  0  0
  4  6  1  0  0  0  0
  6 19  1  0  0  0  0
  6  7  1  0  0  0  0
 19 20  2  0  0  0  0
 20 21  1  0  0  0  0
 21 22  2  0  0  0  0
 22 23  1  0  0  0  0
 23 24  2  0  0  0  0
 24 25  1  0  0  0  0
 25 26  2  0  0  0  0
 26 27  1  0  0  0  0
 27 28  2  0  0  0  0
 19 28  1  0  0  0  0
 23 28  1  0  0  0  0
  7  8  1  0  0  0  0
  8  9  1  0  0  0  0
  3  8  1  0  0  0  0
 10 11  2  0  0  0  0
 11 12  1  0  0  0  0
 12 13  1  0  0  0  0
 12 14  2  0  0  0  0
 14 15  1  0  0  0  0
 15 16  2  0  0  0  0
 16 17  1  0  0  0  0
 10 16  1  0  0  0  0
 17 18  2  0  0  0  0
  1 17  1  0  0  0  0
 34 35  1  0  0  0  0
 31 35  2  0  0  0  0
M  END
$$$$
Mol_69
  PyMOL2.5          3D                             0

 35 40  0  0  0  0  0  0  0  0999 V2000
   -6.0501   -2.9618  -21.8011 O   0  0  0  0  0  0  0  0  0  0  0  0
   -6.7652   -2.3033  -22.6352 C   0  0  0  0  0  0  0  0  0  0  0  0
   -7.5701   -2.9568  -23.6234 N   0  0  0  0  0  0  0  0  0  0  0  0
   -7.5282   -4.3877  -23.6413 C   0  0  0  0  0  0  0  0  0  0  0  0
   -7.5996   -5.1236  -22.3700 C   0  0  0  0  0  0  0  0  0  0  0  0
   -6.7810   -6.4218  -22.5464 C   0  0  0  0  0  0  0  0  0  0  0  0
   -6.7645   -6.4477  -24.0766 C   0  0  0  0  0  0  0  0  0  0  0  0
   -6.3001   -4.9921  -24.2845 C   0  0  0  0  0  0  0  0  0  0  0  0
   -8.1135   -6.4116  -24.5180 N   0  3  0  0  0  0  0  0  0  0  0  0
   -8.5766   -5.0333  -24.5502 C   0  0  0  0  0  0  0  0  0  0  0  0
   -8.6616   -6.9354  -23.8356 H   0  0  0  0  0  0  0  0  0  0  0  0
   -8.3677   -7.1120  -25.7457 C   0  0  0  0  0  0  0  0  0  0  0  0
   -8.3886   -6.0839  -26.8574 C   0  0  0  0  0  0  0  0  0  0  0  0
   -7.5236   -6.3950  -28.0584 C   0  0  0  0  0  0  0  0  0  0  0  0
   -8.6208   -5.9860  -28.8510 O   0  0  0  0  0  0  0  0  0  0  0  0
   -9.5215   -6.3384  -27.8285 C   0  0  0  0  0  0  0  0  0  0  0  0
   -6.6807   -0.8316  -22.4778 C   0  0  0  0  0  0  0  0  0  0  0  0
   -6.3274   -0.5010  -21.0375 C   0  0  0  0  0  0  0  0  0  0  0  0
   -7.2008   -0.8885  -20.0192 C   0  0  0  0  0  0  0  0  0  0  0  0
   -6.8976   -0.5976  -18.7417 N   0  0  0  0  0  0  0  0  0  0  0  0
   -5.7684    0.0629  -18.3953 C   0  0  0  0  0  0  0  0  0  0  0  0
   -4.8988    0.4506  -19.3897 C   0  0  0  0  0  0  0  0  0  0  0  0
   -3.7486    1.1248  -19.0134 C   0  0  0  0  0  0  0  0  0  0  0  0
   -2.8576    1.5232  -20.0099 C   0  0  0  0  0  0  0  0  0  0  0  0
   -3.1359    1.2406  -21.3419 C   0  0  0  0  0  0  0  0  0  0  0  0
   -4.2832    0.5682  -21.7166 C   0  0  0  0  0  0  0  0  0  0  0  0
   -5.1641    0.1745  -20.7315 C   0  0  0  0  0  0  0  0  0  0  0  0
   -8.3963   -2.2409  -24.5417 C   0  0  0  0  0  0  0  0  0  0  0  0
   -9.6007   -1.5683  -24.0251 C   0  0  0  0  0  0  0  0  0  0  0  0
   -9.8126   -0.2011  -24.0820 C   0  0  0  0  0  0  0  0  0  0  0  0
  -10.9665    0.4046  -23.6148 C   0  0  0  0  0  0  0  0  0  0  0  0
  -11.9792   -0.3456  -23.0595 C   0  0  0  0  0  0  0  0  0  0  0  0
  -11.8021   -1.6936  -22.9898 C   0  0  0  0  0  0  0  0  0  0  0  0
  -13.0936   -2.6536  -22.2819 Cl  0  0  0  0  0  0  0  0  0  0  0  0
  -10.6596   -2.2939  -23.4526 C   0  0  0  0  0  0  0  0  0  0  0  0
  1  2  2  0  0  0  0
  2 17  1  0  0  0  0
  2  3  1  0  0  0  0
 17 18  1  0  0  0  0
 18 19  2  0  0  0  0
 19 20  1  0  0  0  0
 20 21  2  0  0  0  0
 21 22  1  0  0  0  0
 22 23  2  0  0  0  0
 23 24  1  0  0  0  0
 24 25  2  0  0  0  0
 25 26  1  0  0  0  0
 26 27  2  0  0  0  0
 18 27  1  0  0  0  0
 22 27  1  0  0  0  0
  3 28  1  0  0  0  0
 28 29  1  0  0  0  0
 29 30  2  0  0  0  0
 30 31  1  0  0  0  0
 31 32  2  0  0  0  0
 32 33  1  0  0  0  0
 33 34  1  0  0  0  0
 33 35  2  0  0  0  0
 29 35  1  0  0  0  0
  3  4  1  0  0  0  0
  4  5  1  0  0  0  0
  5  6  1  0  0  0  0
  6  7  1  0  0  0  0
  7  8  1  0  0  0  0
  7  9  1  0  0  0  0
  4  8  1  0  0  0  0
  9 12  1  0  0  0  0
  9 10  1  0  0  0  0
  9 11  1  0  0  0  0
 12 13  1  0  0  0  0
 13 14  1  0  0  0  0
 14 15  1  0  0  0  0
 15 16  1  0  0  0  0
 13 16  1  0  0  0  0
  4 10  1  0  0  0  0
M  END
$$$$
Mol_70
  PyMOL2.5          3D                             0

 37 41  0  0  0  0  0  0  0  0999 V2000
   -9.4082   -1.6168  -23.3635 N   0  3  0  0  0  0  0  0  0  0  0  0
  -10.1931   -1.6009  -23.9577 H   0  0  0  0  0  0  0  0  0  0  0  0
  -12.6830    3.5056  -22.9277 C   0  0  0  0  0  0  0  0  0  0  0  0
  -13.5588    3.0724  -22.1468 O   0  0  0  0  0  0  0  0  0  0  0  0
  -11.7555    2.7030  -23.6373 N   0  0  0  0  0  0  0  0  0  0  0  0
  -10.7377    3.3523  -24.4794 C   0  0  0  0  0  0  0  0  0  0  0  0
   -9.7157    2.3128  -24.8754 C   0  0  0  0  0  0  0  0  0  0  0  0
   -9.4124    1.4196  -23.6451 C   0  0  0  0  0  0  0  0  0  0  0  0
  -10.5705    0.5744  -23.5168 C   0  0  0  0  0  0  0  0  0  0  0  0
  -11.8065    1.2838  -23.5206 C   0  0  0  0  0  0  0  0  0  0  0  0
  -13.0144    0.6763  -23.4120 C   0  0  0  0  0  0  0  0  0  0  0  0
  -13.0721   -0.6838  -23.2919 C   0  0  0  0  0  0  0  0  0  0  0  0
  -11.8799   -1.3751  -23.2870 C   0  0  0  0  0  0  0  0  0  0  0  0
  -10.6389   -0.7761  -23.3964 C   0  0  0  0  0  0  0  0  0  0  0  0
  -13.6468    5.6109  -23.6676 C   0  0  0  0  0  0  0  0  0  0  0  0
  -12.6416    4.9656  -23.0986 C   0  0  0  0  0  0  0  0  0  0  0  0
   -8.6495   -1.4277  -22.2148 C   0  0  0  0  0  0  0  0  0  0  0  0
   -8.2575   -2.6026  -21.8670 O   0  0  0  0  0  0  0  0  0  0  0  0
   -8.1614   -0.4409  -21.3104 C   0  0  0  0  0  0  0  0  0  0  0  0
   -7.1457   -0.5309  -20.3039 C   0  0  0  0  0  0  0  0  0  0  0  0
   -7.1272   -1.3526  -19.1984 C   0  0  0  0  0  0  0  0  0  0  0  0
   -6.1142   -1.3562  -18.2984 N   0  0  0  0  0  0  0  0  0  0  0  0
   -5.0569   -0.5463  -18.4377 C   0  0  0  0  0  0  0  0  0  0  0  0
   -5.0277    0.2888  -19.5179 C   0  0  0  0  0  0  0  0  0  0  0  0
   -3.9500    1.1257  -19.6690 C   0  0  0  0  0  0  0  0  0  0  0  0
   -3.8189    2.0058  -20.7131 C   0  0  0  0  0  0  0  0  0  0  0  0
   -4.8268    2.0392  -21.6472 C   0  0  0  0  0  0  0  0  0  0  0  0
   -5.9190    1.1908  -21.4940 C   0  0  0  0  0  0  0  0  0  0  0  0
   -6.0250    0.3131  -20.4311 C   0  0  0  0  0  0  0  0  0  0  0  0
   -8.7804   -1.3557  -24.5525 C   0  0  0  0  0  0  0  0  0  0  0  0
   -8.4518   -2.7430  -25.1147 C   0  0  0  0  0  0  0  0  0  0  0  0
   -7.1735   -3.1570  -25.3032 C   0  0  0  0  0  0  0  0  0  0  0  0
   -6.8656   -4.4074  -25.8004 C   0  0  0  0  0  0  0  0  0  0  0  0
   -7.8956   -5.2794  -26.1218 C   0  0  0  0  0  0  0  0  0  0  0  0
   -9.1909   -4.8850  -25.9408 C   0  0  0  0  0  0  0  0  0  0  0  0
  -10.5220   -5.9503  -26.3320 Cl  0  0  0  0  0  0  0  0  0  0  0  0
   -9.4697   -3.6231  -25.4394 C   0  0  0  0  0  0  0  0  0  0  0  0
 15 16  2  0  0  0  0
  3 16  1  0  0  0  0
  3  4  2  0  0  0  0
  3  5  1  0  0  0  0
  5  6  1  0  0  0  0
  6  7  1  0  0  0  0
  7  8  1  0  0  0  0
  8  9  1  0  0  0  0
  9 10  2  0  0  0  0
 10 11  1  0  0  0  0
  5 10  1  0  0  0  0
 11 12  2  0  0  0  0
 12 13  1  0  0  0  0
 13 14  2  0  0  0  0
  1 14  1  0  0  0  0
  9 14  1  0  0  0  0
  1 30  1  0  0  0  0
  1 17  1  0  0  0  0
  1  2  1  0  0  0  0
 30 31  1  0  0  0  0
 31 32  2  0  0  0  0
 32 33  1  0  0  0  0
 33 34  2  0  0  0  0
 34 35  1  0  0  0  0
 35 36  1  0  0  0  0
 35 37  2  0  0  0  0
 31 37  1  0  0  0  0
 17 18  2  0  0  0  0
 17 19  1  0  0  0  0
 19 20  1  0  0  0  0
 20 21  2  0  0  0  0
 21 22  1  0  0  0  0
 22 23  2  0  0  0  0
 23 24  1  0  0  0  0
 24 25  2  0  0  0  0
 25 26  1  0  0  0  0
 26 27  2  0  0  0  0
 27 28  1  0  0  0  0
 28 29  2  0  0  0  0
 20 29  1  0  0  0  0
 24 29  1  0  0  0  0
M  END
$$$$
Mol_71
  PyMOL2.5          3D                             0

 24 26  0  0  0  0  0  0  0  0999 V2000
   -7.6643   -5.4895  -24.9610 C   0  0  0  0  0  0  0  0  0  0  0  0
   -6.4749   -4.6784  -25.4537 C   0  0  0  0  0  0  0  0  0  0  0  0
   -8.6869   -4.5808  -24.4131 C   0  0  0  0  0  0  0  0  0  0  0  0
   -8.2319   -3.7238  -23.2514 C   0  0  0  0  0  0  0  0  0  0  0  0
   -7.1448   -4.3140  -22.4990 N   0  0  0  0  0  0  0  0  0  0  0  0
   -6.1961   -3.5034  -21.7812 C   0  0  0  0  0  0  0  0  0  0  0  0
   -5.2538   -4.0143  -21.1223 O   0  0  0  0  0  0  0  0  0  0  0  0
   -7.0609   -5.7558  -22.5014 C   0  0  0  0  0  0  0  0  0  0  0  0
   -7.1890   -6.4123  -23.8110 C   0  0  0  0  0  0  0  0  0  0  0  0
   -8.1703   -6.4331  -25.9839 C   0  0  0  0  0  0  0  0  0  0  0  0
  -10.2771   -6.1133  -27.3176 C   0  0  0  0  0  0  0  0  0  0  0  0
   -8.7921   -5.9575  -27.2258 C   0  0  0  0  0  0  0  0  0  0  0  0
   -8.1934   -6.7315  -28.4266 C   0  0  0  0  0  0  0  0  0  0  0  0
   -6.3856   -2.0342  -21.8568 C   0  0  0  0  0  0  0  0  0  0  0  0
   -6.0324   -1.3209  -20.6214 C   0  0  0  0  0  0  0  0  0  0  0  0
   -6.6646   -1.5089  -19.4096 C   0  0  0  0  0  0  0  0  0  0  0  0
   -6.2789   -0.8116  -18.3072 N   0  0  0  0  0  0  0  0  0  0  0  0
   -5.2575    0.0876  -18.3830 C   0  0  0  0  0  0  0  0  0  0  0  0
   -4.5911    0.3137  -19.5726 C   0  0  0  0  0  0  0  0  0  0  0  0
   -3.5561    1.2359  -19.6023 C   0  0  0  0  0  0  0  0  0  0  0  0
   -2.9036    1.4386  -20.8148 C   0  0  0  0  0  0  0  0  0  0  0  0
   -3.2641    0.7501  -21.9627 C   0  0  0  0  0  0  0  0  0  0  0  0
   -4.3135   -0.1745  -21.8992 C   0  0  0  0  0  0  0  0  0  0  0  0
   -4.9843   -0.3967  -20.6960 C   0  0  0  0  0  0  0  0  0  0  0  0
 11 12  1  0  0  0  0
 12 13  1  0  0  0  0
 10 12  1  0  0  0  0
  1 10  1  0  0  0  0
  1  2  1  0  0  0  0
  1  3  1  0  0  0  0
  3  4  1  0  0  0  0
  4  5  1  0  0  0  0
  5  6  1  0  0  0  0
  5  8  1  0  0  0  0
  6  7  2  0  0  0  0
  6 14  1  0  0  0  0
 14 15  1  0  0  0  0
 15 16  2  0  0  0  0
 16 17  1  0  0  0  0
 17 18  2  0  0  0  0
 18 19  1  0  0  0  0
 19 20  2  0  0  0  0
 20 21  1  0  0  0  0
 21 22  2  0  0  0  0
 22 23  1  0  0  0  0
 23 24  2  0  0  0  0
 15 24  1  0  0  0  0
 19 24  1  0  0  0  0
  8  9  1  0  0  0  0
  1  9  1  0  0  0  0
M  END
$$$$
Mol_72
  PyMOL2.5          3D                             0

 31 35  0  0  0  0  0  0  0  0999 V2000
   -7.4079   -0.5938  -23.7556 C   0  0  0  0  0  0  0  0  0  0  0  0
   -7.4550   -2.0936  -23.5672 C   0  0  0  0  0  0  0  0  0  0  0  0
   -8.6075   -2.4466  -22.6161 C   0  0  0  0  0  0  0  0  0  0  0  0
   -9.7396   -2.3362  -23.4817 N   0  0  0  0  0  0  0  0  0  0  0  0
   -9.3110   -2.8834  -24.7409 C   0  0  0  0  0  0  0  0  0  0  0  0
  -10.0633   -3.3177  -25.6674 O   0  0  0  0  0  0  0  0  0  0  0  0
   -7.8283   -2.8652  -24.7990 C   0  0  0  0  0  0  0  0  0  0  0  0
   -7.2860   -2.2989  -26.0561 C   0  0  0  0  0  0  0  0  0  0  0  0
   -5.8473   -2.3531  -26.0688 N   0  0  0  0  0  0  0  0  0  0  0  0
   -5.2373   -3.6355  -25.8102 C   0  0  0  0  0  0  0  0  0  0  0  0
   -4.0556   -3.8857  -26.2293 O   0  0  0  0  0  0  0  0  0  0  0  0
   -6.0191   -4.6076  -25.0644 C   0  0  0  0  0  0  0  0  0  0  0  0
   -5.4707   -5.8602  -24.8958 C   0  0  0  0  0  0  0  0  0  0  0  0
   -6.2000   -6.8498  -24.2754 C   0  0  0  0  0  0  0  0  0  0  0  0
   -7.4694   -6.5362  -23.8440 C   0  0  0  0  0  0  0  0  0  0  0  0
   -8.1945   -7.5173  -23.2298 F   0  0  0  0  0  0  0  0  0  0  0  0
   -8.0118   -5.2578  -24.0222 C   0  0  0  0  0  0  0  0  0  0  0  0
   -7.2829   -4.2576  -24.6427 C   0  0  0  0  0  0  0  0  0  0  0  0
  -11.0436   -1.8150  -23.2675 C   0  0  0  0  0  0  0  0  0  0  0  0
  -12.0823   -2.6580  -22.8543 C   0  0  0  0  0  0  0  0  0  0  0  0
  -13.3349   -2.1688  -22.6481 N   0  0  0  0  0  0  0  0  0  0  0  0
  -13.6357   -0.8793  -22.8258 C   0  0  0  0  0  0  0  0  0  0  0  0
  -12.6628   -0.0047  -23.2294 C   0  0  0  0  0  0  0  0  0  0  0  0
  -12.9714    1.3269  -23.4151 C   0  0  0  0  0  0  0  0  0  0  0  0
  -12.0055    2.2278  -23.8240 C   0  0  0  0  0  0  0  0  0  0  0  0
  -10.7094    1.7520  -24.0436 C   0  0  0  0  0  0  0  0  0  0  0  0
  -10.4364    0.4152  -23.8483 C   0  0  0  0  0  0  0  0  0  0  0  0
  -11.3853   -0.4941  -23.4417 C   0  0  0  0  0  0  0  0  0  0  0  0
   -4.9566   -1.2732  -26.3636 C   0  0  0  0  0  0  0  0  0  0  0  0
   -4.2191   -0.7161  -25.2689 C   0  0  0  0  0  0  0  0  0  0  0  0
   -3.6169   -0.2746  -24.4105 N   0  0  0  0  0  0  0  0  0  0  0  0
  1  2  1  0  0  0  0
  2  3  1  0  0  0  0
  3  4  1  0  0  0  0
  4 19  1  0  0  0  0
  4  5  1  0  0  0  0
 19 20  2  0  0  0  0
 20 21  1  0  0  0  0
 21 22  2  0  0  0  0
 22 23  1  0  0  0  0
 23 24  2  0  0  0  0
 24 25  1  0  0  0  0
 25 26  2  0  0  0  0
 26 27  1  0  0  0  0
 27 28  2  0  0  0  0
 19 28  1  0  0  0  0
 23 28  1  0  0  0  0
  5  6  2  0  0  0  0
  5  7  1  0  0  0  0
  7  8  1  0  0  0  0
  2  7  1  0  0  0  0
  8  9  1  0  0  0  0
  9 29  1  0  0  0  0
  9 10  1  0  0  0  0
 29 30  1  0  0  0  0
 30 31  3  0  0  0  0
 10 11  2  0  0  0  0
 10 12  1  0  0  0  0
 12 13  2  0  0  0  0
 13 14  1  0  0  0  0
 14 15  2  0  0  0  0
 15 16  1  0  0  0  0
 15 17  1  0  0  0  0
 17 18  2  0  0  0  0
 12 18  1  0  0  0  0
  7 18  1  0  0  0  0
M  END
$$$$
Mol_73
  PyMOL2.5          3D                             0

 23 26  0  0  0  0  0  0  0  0999 V2000
   -5.1416   -3.9214  -20.7007 O   0  0  0  0  0  0  0  0  0  0  0  0
   -5.9853   -3.4628  -21.5020 C   0  0  0  0  0  0  0  0  0  0  0  0
   -6.4178   -4.3153  -22.5703 N   0  0  0  0  0  0  0  0  0  0  0  0
   -5.8517   -5.6445  -22.6607 C   0  0  0  0  0  0  0  0  0  0  0  0
   -6.9726   -6.5853  -22.2015 C   0  0  0  0  0  0  0  0  0  0  0  0
   -7.6730   -7.0781  -23.4158 C   0  0  0  0  0  0  0  0  0  0  0  0
   -7.8460   -6.0582  -24.4202 C   0  0  0  0  0  0  0  0  0  0  0  0
   -8.3280   -6.6722  -26.0343 S   0  0  0  0  0  0  0  0  0  0  0  0
   -8.3902   -5.0519  -26.7902 C   0  0  0  0  0  0  0  0  0  0  0  0
   -8.0524   -4.2041  -25.7945 C   0  0  0  0  0  0  0  0  0  0  0  0
   -7.7714   -4.7107  -24.5755 C   0  0  0  0  0  0  0  0  0  0  0  0
   -7.4052   -3.7584  -23.4500 C   0  0  0  0  0  0  0  0  0  0  0  0
   -6.5739   -2.0984  -21.4223 C   0  0  0  0  0  0  0  0  0  0  0  0
   -6.0693   -1.2556  -20.3435 C   0  0  0  0  0  0  0  0  0  0  0  0
   -6.6172   -1.2924  -19.0733 C   0  0  0  0  0  0  0  0  0  0  0  0
   -6.1556   -0.5171  -18.0554 N   0  0  0  0  0  0  0  0  0  0  0  0
   -5.1389    0.3437  -18.1922 C   0  0  0  0  0  0  0  0  0  0  0  0
   -4.5565    0.4213  -19.4412 C   0  0  0  0  0  0  0  0  0  0  0  0
   -3.5229    1.3278  -19.5798 C   0  0  0  0  0  0  0  0  0  0  0  0
   -2.9092    1.4699  -20.8036 C   0  0  0  0  0  0  0  0  0  0  0  0
   -3.3397    0.7047  -21.8644 C   0  0  0  0  0  0  0  0  0  0  0  0
   -4.3841   -0.2181  -21.7477 C   0  0  0  0  0  0  0  0  0  0  0  0
   -5.0091   -0.3640  -20.5051 C   0  0  0  0  0  0  0  0  0  0  0  0
  1  2  2  0  0  0  0
  2 13  1  0  0  0  0
  2  3  1  0  0  0  0
 13 14  1  0  0  0  0
 14 15  2  0  0  0  0
 15 16  1  0  0  0  0
 16 17  2  0  0  0  0
 17 18  1  0  0  0  0
 18 19  2  0  0  0  0
 19 20  1  0  0  0  0
 20 21  2  0  0  0  0
 21 22  1  0  0  0  0
 22 23  2  0  0  0  0
 14 23  1  0  0  0  0
 18 23  1  0  0  0  0
  3  4  1  0  0  0  0
  4  5  1  0  0  0  0
  5  6  1  0  0  0  0
  6  7  1  0  0  0  0
  7  8  1  0  0  0  0
  8  9  1  0  0  0  0
  9 10  2  0  0  0  0
 10 11  1  0  0  0  0
 11 12  1  0  0  0  0
  7 11  2  0  0  0  0
  3 12  1  0  0  0  0
M  END
$$$$
Mol_74
  PyMOL2.5          3D                             0

 26 29  0  0  0  0  0  0  0  0999 V2000
   -9.0354   -1.0192  -21.5136 O   0  0  0  0  0  0  0  0  0  0  0  0
   -8.2070   -0.7913  -22.4684 C   0  0  0  0  0  0  0  0  0  0  0  0
   -8.2393   -1.5011  -23.6874 N   0  0  0  0  0  0  0  0  0  0  0  0
   -7.2880   -1.2597  -24.7871 C   0  0  0  0  0  0  0  0  0  0  0  0
   -6.3195   -2.4180  -24.7695 C   0  0  0  0  0  0  0  0  0  0  0  0
   -6.9480   -3.5758  -24.0737 C   0  0  0  0  0  0  0  0  0  0  0  0
   -8.4291   -3.7479  -24.3995 C   0  0  0  0  0  0  0  0  0  0  0  0
   -9.2274   -2.5427  -23.9997 C   0  0  0  0  0  0  0  0  0  0  0  0
   -7.2197    0.2870  -22.1675 C   0  0  0  0  0  0  0  0  0  0  0  0
   -6.4749    0.0731  -20.9042 C   0  0  0  0  0  0  0  0  0  0  0  0
   -6.8422   -0.7969  -19.9142 C   0  0  0  0  0  0  0  0  0  0  0  0
   -6.1174   -0.9166  -18.7794 N   0  0  0  0  0  0  0  0  0  0  0  0
   -5.0006   -0.2110  -18.5273 C   0  0  0  0  0  0  0  0  0  0  0  0
   -4.6090    0.6783  -19.5192 C   0  0  0  0  0  0  0  0  0  0  0  0
   -3.4622    1.4324  -19.3035 C   0  0  0  0  0  0  0  0  0  0  0  0
   -3.0137    2.3360  -20.2346 C   0  0  0  0  0  0  0  0  0  0  0  0
   -3.7321    2.4819  -21.4022 C   0  0  0  0  0  0  0  0  0  0  0  0
   -4.8751    1.7349  -21.6272 C   0  0  0  0  0  0  0  0  0  0  0  0
   -5.3231    0.8262  -20.6870 C   0  0  0  0  0  0  0  0  0  0  0  0
  -10.2050   -2.7786  -22.9242 C   0  0  0  0  0  0  0  0  0  0  0  0
  -11.4908   -2.0424  -23.0462 C   0  0  0  0  0  0  0  0  0  0  0  0
  -12.6100   -2.5750  -22.3912 C   0  0  0  0  0  0  0  0  0  0  0  0
  -13.8485   -1.9638  -22.4557 C   0  0  0  0  0  0  0  0  0  0  0  0
  -13.9946   -0.8016  -23.1815 C   0  0  0  0  0  0  0  0  0  0  0  0
  -12.8964   -0.2810  -23.8230 C   0  0  0  0  0  0  0  0  0  0  0  0
  -11.6427   -0.8818  -23.7689 C   0  0  0  0  0  0  0  0  0  0  0  0
  1  2  2  0  0  0  0
  2  9  1  0  0  0  0
  2  3  1  0  0  0  0
  9 10  1  0  0  0  0
 10 11  2  0  0  0  0
 11 12  1  0  0  0  0
 12 13  2  0  0  0  0
 13 14  1  0  0  0  0
 14 15  2  0  0  0  0
 15 16  1  0  0  0  0
 16 17  2  0  0  0  0
 17 18  1  0  0  0  0
 18 19  2  0  0  0  0
 10 19  1  0  0  0  0
 14 19  1  0  0  0  0
  3  4  1  0  0  0  0
  4  5  1  0  0  0  0
  5  6  1  0  0  0  0
  6  7  1  0  0  0  0
  7  8  1  0  0  0  0
  8 20  1  0  0  0  0
  3  8  1  0  0  0  0
 20 21  1  0  0  0  0
 21 22  2  0  0  0  0
 22 23  1  0  0  0  0
 23 24  2  0  0  0  0
 24 25  1  0  0  0  0
 25 26  2  0  0  0  0
 21 26  1  0  0  0  0
M  END
$$$$
Mol_75
  PyMOL2.5          3D                             0

 28 32  0  0  0  0  0  0  0  0999 V2000
   -4.9462   -3.5573  -19.8704 O   0  0  0  0  0  0  0  0  0  0  0  0
   -5.6178   -3.1131  -20.8463 C   0  0  0  0  0  0  0  0  0  0  0  0
   -6.4189   -3.8912  -21.7271 N   0  0  0  0  0  0  0  0  0  0  0  0
   -6.8543   -3.0164  -22.7683 C   0  0  0  0  0  0  0  0  0  0  0  0
   -6.4829   -3.4145  -24.1887 C   0  0  0  0  0  0  0  0  0  0  0  0
   -7.7238   -4.2955  -24.1237 C   0  0  0  0  0  0  0  0  0  0  0  0
   -8.3034   -3.2145  -23.2354 C   0  0  0  0  0  0  0  0  0  0  0  0
   -6.5349   -1.6391  -22.3672 C   0  0  0  0  0  0  0  0  0  0  0  0
   -6.9702   -0.6202  -22.9636 O   0  0  0  0  0  0  0  0  0  0  0  0
   -5.6810   -1.7253  -21.2300 N   0  0  0  0  0  0  0  0  0  0  0  0
   -6.6321   -4.8481  -21.6364 H   0  0  0  0  0  0  0  0  0  0  0  0
   -5.0309   -0.6168  -20.6183 C   0  0  0  0  0  0  0  0  0  0  0  0
   -5.2422   -0.2449  -19.3067 C   0  0  0  0  0  0  0  0  0  0  0  0
   -4.5783    0.8197  -18.8214 N   0  0  0  0  0  0  0  0  0  0  0  0
   -3.7139    1.5581  -19.5262 C   0  0  0  0  0  0  0  0  0  0  0  0
   -3.4678    1.2238  -20.8501 C   0  0  0  0  0  0  0  0  0  0  0  0
   -2.5891    1.9365  -21.6447 C   0  0  0  0  0  0  0  0  0  0  0  0
   -2.3616    1.5752  -22.9765 C   0  0  0  0  0  0  0  0  0  0  0  0
   -3.0413    0.4802  -23.4837 C   0  0  0  0  0  0  0  0  0  0  0  0
   -3.9287   -0.2453  -22.6928 C   0  0  0  0  0  0  0  0  0  0  0  0
   -4.1371    0.1342  -21.3728 C   0  0  0  0  0  0  0  0  0  0  0  0
   -8.4078   -4.5618  -25.3860 C   0  0  0  0  0  0  0  0  0  0  0  0
   -8.7326   -3.6111  -26.3319 C   0  0  0  0  0  0  0  0  0  0  0  0
   -9.3807   -3.9070  -27.5132 C   0  0  0  0  0  0  0  0  0  0  0  0
   -9.7365   -5.2132  -27.7934 C   0  0  0  0  0  0  0  0  0  0  0  0
   -9.4158   -6.1850  -26.8489 C   0  0  0  0  0  0  0  0  0  0  0  0
   -8.7671   -5.8653  -25.6737 C   0  0  0  0  0  0  0  0  0  0  0  0
   -8.4242   -7.1903  -24.5716 Cl  0  0  0  0  0  0  0  0  0  0  0  0
  1  2  2  0  0  0  0
  2  3  1  0  0  0  0
  3  4  1  0  0  0  0
  3 11  1  0  0  0  0
  4  5  1  0  0  0  0
  4  8  1  0  0  0  0
  5  6  1  0  0  0  0
  6 22  1  0  0  0  0
  6  7  1  0  0  0  0
 22 23  2  0  0  0  0
 23 24  1  0  0  0  0
 24 25  2  0  0  0  0
 25 26  1  0  0  0  0
 26 27  2  0  0  0  0
 27 28  1  0  0  0  0
 22 27  1  0  0  0  0
  4  7  1  0  0  0  0
  8  9  2  0  0  0  0
  8 10  1  0  0  0  0
 10 12  1  0  0  0  0
  2 10  1  0  0  0  0
 12 13  2  0  0  0  0
 13 14  1  0  0  0  0
 14 15  2  0  0  0  0
 15 16  1  0  0  0  0
 16 17  2  0  0  0  0
 17 18  1  0  0  0  0
 18 19  2  0  0  0  0
 19 20  1  0  0  0  0
 20 21  2  0  0  0  0
 12 21  1  0  0  0  0
 16 21  1  0  0  0  0
M  END
$$$$
Mol_76
  PyMOL2.5          3D                             0

 42 47  0  0  0  0  0  0  0  0999 V2000
   -5.7715   -2.8730  -21.0842 N   0  0  0  0  0  0  0  0  0  0  0  0
   -6.0339   -2.0240  -22.2075 C   0  0  0  0  0  0  0  0  0  0  0  0
   -6.8114   -2.6326  -23.3206 C   0  0  0  0  0  0  0  0  0  0  0  0
   -6.2454   -2.0995  -24.6122 C   0  0  0  0  0  0  0  0  0  0  0  0
   -5.3929   -2.6630  -25.3223 O   0  0  0  0  0  0  0  0  0  0  0  0
   -6.8718   -0.8466  -24.8485 N   0  0  0  0  0  0  0  0  0  0  0  0
   -7.9502   -0.6645  -23.8747 C   0  0  0  0  0  0  0  0  0  0  0  0
   -8.2275   -2.0838  -23.4565 C   0  0  0  0  0  0  0  0  0  0  0  0
   -6.8166   -4.1104  -23.3433 C   0  0  0  0  0  0  0  0  0  0  0  0
   -7.3322   -4.7298  -24.4578 C   0  0  0  0  0  0  0  0  0  0  0  0
   -7.3591   -6.1141  -24.5266 C   0  0  0  0  0  0  0  0  0  0  0  0
   -8.0132   -6.9394  -25.9406 Cl  0  0  0  0  0  0  0  0  0  0  0  0
   -6.8792   -6.9141  -23.5005 C   0  0  0  0  0  0  0  0  0  0  0  0
   -6.3609   -6.2892  -22.3801 C   0  0  0  0  0  0  0  0  0  0  0  0
   -6.3446   -4.9061  -22.3339 C   0  0  0  0  0  0  0  0  0  0  0  0
   -5.7908   -4.2838  -21.1370 C   0  0  0  0  0  0  0  0  0  0  0  0
   -5.3468   -4.9777  -20.1872 O   0  0  0  0  0  0  0  0  0  0  0  0
   -6.5428    0.1118  -25.8542 C   0  0  0  0  0  0  0  0  0  0  0  0
   -7.2144    0.0589  -27.0596 C   0  0  0  0  0  0  0  0  0  0  0  0
   -6.9435    0.9486  -28.0598 N   0  0  0  0  0  0  0  0  0  0  0  0
   -5.9912    1.9044  -27.8580 C   0  0  0  0  0  0  0  0  0  0  0  0
   -5.3037    1.9861  -26.6713 C   0  0  0  0  0  0  0  0  0  0  0  0
   -4.3459    2.9670  -26.5018 C   0  0  0  0  0  0  0  0  0  0  0  0
   -3.6708    3.0130  -25.2778 C   0  0  0  0  0  0  0  0  0  0  0  0
   -3.9578    2.1049  -24.2776 C   0  0  0  0  0  0  0  0  0  0  0  0
   -4.9196    1.1178  -24.4438 C   0  0  0  0  0  0  0  0  0  0  0  0
   -5.5740    1.0877  -25.6553 C   0  0  0  0  0  0  0  0  0  0  0  0
   -5.4629   -2.2634  -19.7948 C   0  0  0  0  0  0  0  0  0  0  0  0
   -4.7972    1.4580  -20.5998 C   0  0  0  0  0  0  0  0  0  0  0  0
   -4.5257    0.0341  -20.4196 N   0  0  0  0  0  0  0  0  0  0  0  0
   -5.5970   -0.7811  -20.0186 C   0  0  0  0  0  0  0  0  0  0  0  0
   -6.7408   -0.2486  -19.8329 O   0  0  0  0  0  0  0  0  0  0  0  0
   -3.6278   -0.3393  -20.5732 H   0  0  0  0  0  0  0  0  0  0  0  0
   -9.0479   -2.2082  -22.2236 C   0  0  0  0  0  0  0  0  0  0  0  0
  -10.1934   -3.0653  -22.5666 N   0  0  0  0  0  0  0  0  0  0  0  0
  -10.1049   -4.0373  -22.6958 H   0  0  0  0  0  0  0  0  0  0  0  0
  -11.4471   -2.3842  -22.6995 C   0  0  0  0  0  0  0  0  0  0  0  0
  -11.5354   -1.1532  -23.3571 C   0  0  0  0  0  0  0  0  0  0  0  0
  -12.7230   -0.5091  -23.4824 N   0  0  0  0  0  0  0  0  0  0  0  0
  -13.8445   -1.0645  -22.9631 C   0  0  0  0  0  0  0  0  0  0  0  0
  -13.7867   -2.2783  -22.3089 C   0  0  0  0  0  0  0  0  0  0  0  0
  -12.5964   -2.8699  -22.2130 N   0  0  0  0  0  0  0  0  0  0  0  0
 29 30  1  0  0  0  0
 30 31  1  0  0  0  0
 30 33  1  0  0  0  0
 31 32  2  0  0  0  0
 28 31  1  0  0  0  0
  1 28  1  0  0  0  0
  1  2  1  0  0  0  0
  2  3  1  0  0  0  0
  3  4  1  0  0  0  0
  3  9  1  0  0  0  0
  4  5  2  0  0  0  0
  4  6  1  0  0  0  0
  6 18  1  0  0  0  0
  6  7  1  0  0  0  0
 18 19  2  0  0  0  0
 19 20  1  0  0  0  0
 20 21  2  0  0  0  0
 21 22  1  0  0  0  0
 22 23  2  0  0  0  0
 23 24  1  0  0  0  0
 24 25  2  0  0  0  0
 25 26  1  0  0  0  0
 26 27  2  0  0  0  0
 18 27  1  0  0  0  0
 22 27  1  0  0  0  0
  7  8  1  0  0  0  0
  8 34  1  0  0  0  0
  3  8  1  0  0  0  0
 34 35  1  0  0  0  0
 35 37  1  0  0  0  0
 35 36  1  0  0  0  0
 37 38  2  0  0  0  0
 38 39  1  0  0  0  0
 39 40  2  0  0  0  0
 40 41  1  0  0  0  0
 41 42  2  0  0  0  0
 37 42  1  0  0  0  0
  9 10  2  0  0  0  0
 10 11  1  0  0  0  0
 11 12  1  0  0  0  0
 11 13  2  0  0  0  0
 13 14  1  0  0  0  0
 14 15  2  0  0  0  0
 15 16  1  0  0  0  0
  9 15  1  0  0  0  0
 16 17  2  0  0  0  0
  1 16  1  0  0  0  0
M  END
$$$$
Mol_77
  PyMOL2.5          3D                             0

 37 42  0  0  0  0  0  0  0  0999 V2000
   -9.3589    2.6911  -25.1955 C   0  0  0  0  0  0  0  0  0  0  0  0
   -9.0369    1.2357  -24.8698 C   0  0  0  0  0  0  0  0  0  0  0  0
   -7.5524    1.1624  -24.6996 C   0  0  0  0  0  0  0  0  0  0  0  0
   -7.3180    0.9170  -23.3021 N   0  0  0  0  0  0  0  0  0  0  0  0
   -8.5604    0.8334  -22.6236 C   0  0  0  0  0  0  0  0  0  0  0  0
   -8.7325    0.8335  -21.3708 O   0  0  0  0  0  0  0  0  0  0  0  0
   -9.6876    0.7414  -23.6200 C   0  0  0  0  0  0  0  0  0  0  0  0
  -10.8023    1.5768  -23.0987 C   0  0  0  0  0  0  0  0  0  0  0  0
  -12.1199    1.0401  -23.2304 N   0  0  0  0  0  0  0  0  0  0  0  0
  -12.4092   -0.3586  -23.3451 C   0  0  0  0  0  0  0  0  0  0  0  0
  -13.5806   -0.8118  -23.2295 O   0  0  0  0  0  0  0  0  0  0  0  0
  -11.2680   -1.2289  -23.6038 C   0  0  0  0  0  0  0  0  0  0  0  0
  -11.5381   -2.5876  -23.7101 C   0  0  0  0  0  0  0  0  0  0  0  0
  -10.5174   -3.4832  -23.9478 C   0  0  0  0  0  0  0  0  0  0  0  0
   -9.2423   -2.9740  -24.0720 C   0  0  0  0  0  0  0  0  0  0  0  0
   -7.9424   -4.1130  -24.3743 Cl  0  0  0  0  0  0  0  0  0  0  0  0
   -8.9791   -1.6034  -23.9636 C   0  0  0  0  0  0  0  0  0  0  0  0
   -9.9993   -0.7083  -23.7262 C   0  0  0  0  0  0  0  0  0  0  0  0
   -6.0366    0.7832  -22.7016 C   0  0  0  0  0  0  0  0  0  0  0  0
   -5.5136   -0.4209  -22.2819 C   0  0  0  0  0  0  0  0  0  0  0  0
   -4.3035   -0.5365  -21.7165 N   0  0  0  0  0  0  0  0  0  0  0  0
   -3.5352    0.5295  -21.5307 C   0  0  0  0  0  0  0  0  0  0  0  0
   -4.0051    1.7702  -21.9318 C   0  0  0  0  0  0  0  0  0  0  0  0
   -3.1708    2.8438  -21.7170 C   0  0  0  0  0  0  0  0  0  0  0  0
   -3.5899    4.1036  -22.0980 C   0  0  0  0  0  0  0  0  0  0  0  0
   -4.8270    4.2572  -22.6815 C   0  0  0  0  0  0  0  0  0  0  0  0
   -5.6694    3.1714  -22.8980 C   0  0  0  0  0  0  0  0  0  0  0  0
   -5.2513    1.9072  -22.5167 C   0  0  0  0  0  0  0  0  0  0  0  0
  -13.2786    1.9269  -23.2505 C   0  0  0  0  0  0  0  0  0  0  0  0
  -12.8905    3.2151  -22.6284 C   0  0  0  0  0  0  0  0  0  0  0  0
  -12.8875    4.3426  -23.5097 N   0  3  0  0  0  0  0  0  0  0  0  0
  -13.0914    3.9047  -24.8844 C   0  0  0  0  0  0  0  0  0  0  0  0
  -12.7487    5.1134  -25.7370 C   0  0  0  0  0  0  0  0  0  0  0  0
  -13.7084    6.0895  -25.4602 O   0  0  0  0  0  0  0  0  0  0  0  0
  -13.6402    6.4924  -24.1435 C   0  0  0  0  0  0  0  0  0  0  0  0
  -13.9195    5.3126  -23.2297 C   0  0  0  0  0  0  0  0  0  0  0  0
  -11.9791    4.7843  -23.3679 H   0  0  0  0  0  0  0  0  0  0  0  0
  1  2  1  0  0  0  0
  2  3  1  0  0  0  0
  3  4  1  0  0  0  0
  4 19  1  0  0  0  0
  4  5  1  0  0  0  0
 19 20  2  0  0  0  0
 20 21  1  0  0  0  0
 21 22  2  0  0  0  0
 22 23  1  0  0  0  0
 23 24  2  0  0  0  0
 24 25  1  0  0  0  0
 25 26  2  0  0  0  0
 26 27  1  0  0  0  0
 27 28  2  0  0  0  0
 19 28  1  0  0  0  0
 23 28  1  0  0  0  0
  5  6  2  0  0  0  0
  5  7  1  0  0  0  0
  7  8  1  0  0  0  0
  2  7  1  0  0  0  0
  8  9  1  0  0  0  0
  9 29  1  0  0  0  0
  9 10  1  0  0  0  0
 29 30  1  0  0  0  0
 30 31  1  0  0  0  0
 31 32  1  0  0  0  0
 31 37  1  0  0  0  0
 32 33  1  0  0  0  0
 33 34  1  0  0  0  0
 34 35  1  0  0  0  0
 35 36  1  0  0  0  0
 31 36  1  0  0  0  0
 10 11  2  0  0  0  0
 10 12  1  0  0  0  0
 12 13  2  0  0  0  0
 13 14  1  0  0  0  0
 14 15  2  0  0  0  0
 15 16  1  0  0  0  0
 15 17  1  0  0  0  0
 17 18  2  0  0  0  0
 12 18  1  0  0  0  0
  7 18  1  0  0  0  0
M  END
$$$$
Mol_78
  PyMOL2.5          3D                             0

 34 39  0  0  0  0  0  0  0  0999 V2000
   -7.6733    0.5620  -25.8219 C   0  0  0  0  0  0  0  0  0  0  0  0
   -7.3311    1.3698  -24.5740 C   0  0  0  0  0  0  0  0  0  0  0  0
   -8.4604    2.3475  -24.3930 C   0  0  0  0  0  0  0  0  0  0  0  0
   -9.3822    1.6018  -23.5555 N   0  0  0  0  0  0  0  0  0  0  0  0
   -8.5548    0.8961  -22.6375 C   0  0  0  0  0  0  0  0  0  0  0  0
   -8.8074    0.6331  -21.4221 O   0  0  0  0  0  0  0  0  0  0  0  0
   -7.2878    0.4925  -23.3472 C   0  0  0  0  0  0  0  0  0  0  0  0
   -7.4678   -0.9577  -23.6851 C   0  0  0  0  0  0  0  0  0  0  0  0
   -7.1546   -1.7858  -22.5457 N   0  0  0  0  0  0  0  0  0  0  0  0
   -6.0061   -1.5446  -21.7209 C   0  0  0  0  0  0  0  0  0  0  0  0
   -5.4788   -2.4435  -21.0214 O   0  0  0  0  0  0  0  0  0  0  0  0
   -5.4727   -0.1975  -21.7301 C   0  0  0  0  0  0  0  0  0  0  0  0
   -4.3662    0.0781  -20.9609 C   0  0  0  0  0  0  0  0  0  0  0  0
   -3.8309    1.3491  -20.9561 C   0  0  0  0  0  0  0  0  0  0  0  0
   -4.4373    2.3103  -21.7366 C   0  0  0  0  0  0  0  0  0  0  0  0
   -3.9062    3.5658  -21.7300 F   0  0  0  0  0  0  0  0  0  0  0  0
   -5.5486    2.0165  -22.5034 C   0  0  0  0  0  0  0  0  0  0  0  0
   -6.1081    0.7320  -22.5225 C   0  0  0  0  0  0  0  0  0  0  0  0
  -10.7927    1.5368  -23.5794 C   0  0  0  0  0  0  0  0  0  0  0  0
  -11.5113    0.3606  -23.5283 C   0  0  0  0  0  0  0  0  0  0  0  0
  -12.8583    0.4035  -23.5568 N   0  0  0  0  0  0  0  0  0  0  0  0
  -13.5305    1.5724  -23.6345 C   0  0  0  0  0  0  0  0  0  0  0  0
  -12.8694    2.7791  -23.6883 C   0  0  0  0  0  0  0  0  0  0  0  0
  -13.5553    3.9899  -23.7685 C   0  0  0  0  0  0  0  0  0  0  0  0
  -12.8570    5.1753  -23.8205 C   0  0  0  0  0  0  0  0  0  0  0  0
  -11.4788    5.1690  -23.7934 C   0  0  0  0  0  0  0  0  0  0  0  0
  -10.8156    3.9530  -23.7133 C   0  0  0  0  0  0  0  0  0  0  0  0
  -11.4803    2.7484  -23.6596 C   0  0  0  0  0  0  0  0  0  0  0  0
   -7.9866   -2.9333  -22.1697 C   0  0  0  0  0  0  0  0  0  0  0  0
   -9.1407   -3.1367  -23.0545 C   0  0  0  0  0  0  0  0  0  0  0  0
  -10.4780   -2.8017  -22.8089 C   0  0  0  0  0  0  0  0  0  0  0  0
  -11.1631   -3.1667  -23.8783 O   0  0  0  0  0  0  0  0  0  0  0  0
  -10.3559   -3.6963  -24.7560 C   0  0  0  0  0  0  0  0  0  0  0  0
   -9.0907   -3.7018  -24.2946 N   0  0  0  0  0  0  0  0  0  0  0  0
  1  2  1  0  0  0  0
  2  3  1  0  0  0  0
  3  4  1  0  0  0  0
  4 19  1  0  0  0  0
  4  5  1  0  0  0  0
 19 20  2  0  0  0  0
 20 21  1  0  0  0  0
 21 22  2  0  0  0  0
 22 23  1  0  0  0  0
 23 24  2  0  0  0  0
 24 25  1  0  0  0  0
 25 26  2  0  0  0  0
 26 27  1  0  0  0  0
 27 28  2  0  0  0  0
 19 28  1  0  0  0  0
 23 28  1  0  0  0  0
  5  6  2  0  0  0  0
  5  7  1  0  0  0  0
  7  8  1  0  0  0  0
  2  7  1  0  0  0  0
  8  9  1  0  0  0  0
  9 29  1  0  0  0  0
  9 10  1  0  0  0  0
 29 30  1  0  0  0  0
 30 31  2  0  0  0  0
 31 32  1  0  0  0  0
 32 33  1  0  0  0  0
 33 34  2  0  0  0  0
 30 34  1  0  0  0  0
 10 11  2  0  0  0  0
 10 12  1  0  0  0  0
 12 13  2  0  0  0  0
 13 14  1  0  0  0  0
 14 15  2  0  0  0  0
 15 16  1  0  0  0  0
 15 17  1  0  0  0  0
 17 18  2  0  0  0  0
 12 18  1  0  0  0  0
  7 18  1  0  0  0  0
M  END
$$$$
Mol_79
  PyMOL2.5          3D                             0

 34 38  0  0  0  0  0  0  0  0999 V2000
   -7.1561   -2.1013  -23.1272 N   0  0  0  0  0  0  0  0  0  0  0  0
   -7.1655   -0.8121  -23.7214 C   0  0  0  0  0  0  0  0  0  0  0  0
   -8.4218    0.0086  -23.5462 C   0  0  0  0  0  0  0  0  0  0  0  0
   -8.6267    0.8862  -24.7386 C   0  0  0  0  0  0  0  0  0  0  0  0
   -8.3676    0.5354  -25.9207 O   0  0  0  0  0  0  0  0  0  0  0  0
   -9.1437    2.1311  -24.3102 N   0  0  0  0  0  0  0  0  0  0  0  0
   -9.0520    2.2084  -22.8777 C   0  0  0  0  0  0  0  0  0  0  0  0
   -8.2782    1.0085  -22.4357 C   0  0  0  0  0  0  0  0  0  0  0  0
   -6.8451    1.4758  -22.2315 C   0  0  0  0  0  0  0  0  0  0  0  0
   -9.6404   -0.8123  -23.3556 C   0  0  0  0  0  0  0  0  0  0  0  0
  -10.9031   -0.2754  -23.4962 C   0  0  0  0  0  0  0  0  0  0  0  0
  -12.0616   -1.0357  -23.3031 C   0  0  0  0  0  0  0  0  0  0  0  0
  -13.6489   -0.3169  -23.4902 Cl  0  0  0  0  0  0  0  0  0  0  0  0
  -11.9956   -2.3662  -22.9615 C   0  0  0  0  0  0  0  0  0  0  0  0
  -10.7408   -2.9145  -22.8196 C   0  0  0  0  0  0  0  0  0  0  0  0
   -9.6016   -2.1619  -23.0113 C   0  0  0  0  0  0  0  0  0  0  0  0
   -8.3285   -2.8832  -22.8772 C   0  0  0  0  0  0  0  0  0  0  0  0
   -8.2733   -4.1029  -22.5646 O   0  0  0  0  0  0  0  0  0  0  0  0
   -9.6651    3.1543  -25.1537 C   0  0  0  0  0  0  0  0  0  0  0  0
   -8.9321    3.8003  -26.1170 C   0  0  0  0  0  0  0  0  0  0  0  0
   -9.4555    4.7711  -26.9054 N   0  0  0  0  0  0  0  0  0  0  0  0
  -10.7337    5.1670  -26.7948 C   0  0  0  0  0  0  0  0  0  0  0  0
  -11.5243    4.5564  -25.8445 C   0  0  0  0  0  0  0  0  0  0  0  0
  -12.8395    4.9608  -25.7272 C   0  0  0  0  0  0  0  0  0  0  0  0
  -13.6732    4.3816  -24.7914 C   0  0  0  0  0  0  0  0  0  0  0  0
  -13.1721    3.3841  -23.9664 C   0  0  0  0  0  0  0  0  0  0  0  0
  -11.8544    3.0056  -24.1114 C   0  0  0  0  0  0  0  0  0  0  0  0
  -10.9993    3.5641  -25.0346 C   0  0  0  0  0  0  0  0  0  0  0  0
   -5.8930   -2.7195  -22.7643 C   0  0  0  0  0  0  0  0  0  0  0  0
   -5.7554   -1.5195  -19.0755 C   0  0  0  0  0  0  0  0  0  0  0  0
   -5.9548   -1.4864  -20.5181 N   0  0  0  0  0  0  0  0  0  0  0  0
   -5.7254   -2.6298  -21.3040 C   0  0  0  0  0  0  0  0  0  0  0  0
   -5.3389   -3.6889  -20.7064 O   0  0  0  0  0  0  0  0  0  0  0  0
   -6.2539   -0.6529  -20.9483 H   0  0  0  0  0  0  0  0  0  0  0  0
 30 31  1  0  0  0  0
 31 32  1  0  0  0  0
 31 34  1  0  0  0  0
 32 33  2  0  0  0  0
 29 32  1  0  0  0  0
  1 29  1  0  0  0  0
  1  2  1  0  0  0  0
  2  3  1  0  0  0  0
  3  4  1  0  0  0  0
  3 10  1  0  0  0  0
  4  5  2  0  0  0  0
  4  6  1  0  0  0  0
  6 19  1  0  0  0  0
  6  7  1  0  0  0  0
 19 20  2  0  0  0  0
 20 21  1  0  0  0  0
 21 22  2  0  0  0  0
 22 23  1  0  0  0  0
 23 24  2  0  0  0  0
 24 25  1  0  0  0  0
 25 26  2  0  0  0  0
 26 27  1  0  0  0  0
 27 28  2  0  0  0  0
 19 28  1  0  0  0  0
 23 28  1  0  0  0  0
  7  8  1  0  0  0  0
  8  9  1  0  0  0  0
  3  8  1  0  0  0  0
 10 11  2  0  0  0  0
 11 12  1  0  0  0  0
 12 13  1  0  0  0  0
 12 14  2  0  0  0  0
 14 15  1  0  0  0  0
 15 16  2  0  0  0  0
 16 17  1  0  0  0  0
 10 16  1  0  0  0  0
 17 18  2  0  0  0  0
  1 17  1  0  0  0  0
M  END
$$$$
Mol_80
  PyMOL2.5          3D                             0

 27 31  0  0  0  0  0  0  0  0999 V2000
   -5.8630   -5.2329  -23.3175 C   0  0  0  0  0  0  0  0  0  0  0  0
   -6.2974   -3.9716  -22.7696 N   0  0  0  0  0  0  0  0  0  0  0  0
   -5.8376   -3.4378  -21.5140 C   0  0  0  0  0  0  0  0  0  0  0  0
   -5.2010   -4.1197  -20.6484 O   0  0  0  0  0  0  0  0  0  0  0  0
   -6.2152   -2.0602  -21.4297 N   0  0  0  0  0  0  0  0  0  0  0  0
   -6.9075   -1.7420  -22.6312 C   0  0  0  0  0  0  0  0  0  0  0  0
   -7.1644   -0.5684  -22.9850 O   0  0  0  0  0  0  0  0  0  0  0  0
   -7.2141   -3.0130  -23.2861 C   0  0  0  0  0  0  0  0  0  0  0  0
   -8.6786   -3.4086  -23.2883 C   0  0  0  0  0  0  0  0  0  0  0  0
   -8.8300   -3.0207  -24.6654 N   0  0  0  0  0  0  0  0  0  0  0  0
   -7.3861   -2.9512  -24.7868 C   0  0  0  0  0  0  0  0  0  0  0  0
   -5.9132   -1.2323  -20.3119 C   0  0  0  0  0  0  0  0  0  0  0  0
   -6.6212   -1.3333  -19.1188 C   0  0  0  0  0  0  0  0  0  0  0  0
   -6.3010   -0.5224  -18.0718 N   0  0  0  0  0  0  0  0  0  0  0  0
   -5.2943    0.3798  -18.1955 C   0  0  0  0  0  0  0  0  0  0  0  0
   -4.5836    0.4917  -19.3712 C   0  0  0  0  0  0  0  0  0  0  0  0
   -3.5484    1.4083  -19.5219 C   0  0  0  0  0  0  0  0  0  0  0  0
   -2.8563    1.4939  -20.7157 C   0  0  0  0  0  0  0  0  0  0  0  0
   -3.1513    0.6873  -21.8036 C   0  0  0  0  0  0  0  0  0  0  0  0
   -4.1887   -0.2188  -21.6270 C   0  0  0  0  0  0  0  0  0  0  0  0
   -4.8887   -0.3180  -20.4455 C   0  0  0  0  0  0  0  0  0  0  0  0
   -9.5881   -4.1164  -25.7204 S   0  0  0  0  0  0  0  0  0  0  0  0
  -10.9407   -4.4754  -25.1334 O   0  0  0  0  0  0  0  0  0  0  0  0
   -9.8294   -3.3790  -27.0288 O   0  0  0  0  0  0  0  0  0  0  0  0
   -8.6979   -5.5961  -26.0369 C   0  0  0  0  0  0  0  0  0  0  0  0
   -9.4626   -6.8393  -26.4543 C   0  0  0  0  0  0  0  0  0  0  0  0
   -8.7700   -6.7535  -25.1385 C   0  0  0  0  0  0  0  0  0  0  0  0
  1  2  1  0  0  0  0
  2  3  1  0  0  0  0
  3  4  2  0  0  0  0
  3  5  1  0  0  0  0
  5 12  1  0  0  0  0
  5  6  1  0  0  0  0
 12 13  2  0  0  0  0
 13 14  1  0  0  0  0
 14 15  2  0  0  0  0
 15 16  1  0  0  0  0
 16 17  2  0  0  0  0
 17 18  1  0  0  0  0
 18 19  2  0  0  0  0
 19 20  1  0  0  0  0
 20 21  2  0  0  0  0
 12 21  1  0  0  0  0
 16 21  1  0  0  0  0
  6  7  2  0  0  0  0
  6  8  1  0  0  0  0
  8  9  1  0  0  0  0
  2  8  1  0  0  0  0
  9 10  1  0  0  0  0
 10 22  1  0  0  0  0
 10 11  1  0  0  0  0
 22 23  2  0  0  0  0
 22 24  2  0  0  0  0
 22 25  1  0  0  0  0
 25 26  1  0  0  0  0
 26 27  1  0  0  0  0
 25 27  1  0  0  0  0
  8 11  1  0  0  0  0
M  END
$$$$
Mol_81
  PyMOL2.5          3D                             0

 36 41  0  0  0  0  0  0  0  0999 V2000
  -10.0649    3.2127  -24.3621 N   0  0  0  0  0  0  0  0  0  0  0  0
   -8.8610    2.4462  -24.2176 C   0  0  0  0  0  0  0  0  0  0  0  0
   -8.9948    1.0468  -23.7543 C   0  0  0  0  0  0  0  0  0  0  0  0
   -8.2934    0.9450  -22.4343 C   0  0  0  0  0  0  0  0  0  0  0  0
   -8.9134    1.0920  -21.3543 O   0  0  0  0  0  0  0  0  0  0  0  0
   -6.8934    0.6708  -22.6505 N   0  0  0  0  0  0  0  0  0  0  0  0
   -6.7573    0.6088  -24.0840 C   0  0  0  0  0  0  0  0  0  0  0  0
   -8.1414    0.0761  -24.5411 C   0  0  0  0  0  0  0  0  0  0  0  0
   -8.3080    0.2166  -26.0182 C   0  0  0  0  0  0  0  0  0  0  0  0
  -10.3673    0.5127  -23.6947 C   0  0  0  0  0  0  0  0  0  0  0  0
  -10.5917   -0.8064  -23.3511 C   0  0  0  0  0  0  0  0  0  0  0  0
  -11.8873   -1.3384  -23.2926 C   0  0  0  0  0  0  0  0  0  0  0  0
  -12.1463   -3.0141  -22.8547 Cl  0  0  0  0  0  0  0  0  0  0  0  0
  -12.9950   -0.5636  -23.5760 C   0  0  0  0  0  0  0  0  0  0  0  0
  -12.7774    0.7413  -23.9154 C   0  0  0  0  0  0  0  0  0  0  0  0
  -11.5012    1.2623  -23.9720 C   0  0  0  0  0  0  0  0  0  0  0  0
  -11.3791    2.6691  -24.3230 C   0  0  0  0  0  0  0  0  0  0  0  0
  -12.4114    3.3416  -24.5729 O   0  0  0  0  0  0  0  0  0  0  0  0
   -6.0058    0.4759  -21.5728 C   0  0  0  0  0  0  0  0  0  0  0  0
   -6.1972   -0.6021  -20.6941 C   0  0  0  0  0  0  0  0  0  0  0  0
   -5.3812   -0.8080  -19.6388 N   0  0  0  0  0  0  0  0  0  0  0  0
   -4.3407   -0.0258  -19.3378 C   0  0  0  0  0  0  0  0  0  0  0  0
   -4.1074    1.0504  -20.1702 C   0  0  0  0  0  0  0  0  0  0  0  0
   -3.0461    1.8643  -19.8544 C   0  0  0  0  0  0  0  0  0  0  0  0
   -2.7535    2.9682  -20.6240 C   0  0  0  0  0  0  0  0  0  0  0  0
   -3.5682    3.2072  -21.7070 C   0  0  0  0  0  0  0  0  0  0  0  0
   -4.6278    2.3935  -22.0218 C   0  0  0  0  0  0  0  0  0  0  0  0
   -4.9369    1.2870  -21.2696 C   0  0  0  0  0  0  0  0  0  0  0  0
   -9.9622    4.6409  -24.5848 C   0  0  0  0  0  0  0  0  0  0  0  0
  -10.7259    5.5169  -23.5316 C   0  0  0  0  0  0  0  0  0  0  0  0
   -9.2453    5.4510  -23.6104 C   0  0  0  0  0  0  0  0  0  0  0  0
  -11.7027    5.8375  -27.8401 C   0  0  0  0  0  0  0  0  0  0  0  0
  -11.5066    5.3824  -26.4625 N   0  0  0  0  0  0  0  0  0  0  0  0
  -10.1919    5.1097  -25.9959 C   0  0  0  0  0  0  0  0  0  0  0  0
   -9.2537    5.2754  -26.8014 O   0  0  0  0  0  0  0  0  0  0  0  0
  -12.2794    5.2660  -25.8638 H   0  0  0  0  0  0  0  0  0  0  0  0
 32 33  1  0  0  0  0
 33 34  1  0  0  0  0
 33 36  1  0  0  0  0
 34 35  2  0  0  0  0
 29 34  1  0  0  0  0
  1 29  1  0  0  0  0
 29 30  1  0  0  0  0
  1  2  1  0  0  0  0
  2  3  1  0  0  0  0
  3  4  1  0  0  0  0
  3 10  1  0  0  0  0
  4  5  2  0  0  0  0
  4  6  1  0  0  0  0
  6 19  1  0  0  0  0
  6  7  1  0  0  0  0
 19 20  2  0  0  0  0
 20 21  1  0  0  0  0
 21 22  2  0  0  0  0
 22 23  1  0  0  0  0
 23 24  2  0  0  0  0
 24 25  1  0  0  0  0
 25 26  2  0  0  0  0
 26 27  1  0  0  0  0
 27 28  2  0  0  0  0
 19 28  1  0  0  0  0
 23 28  1  0  0  0  0
  7  8  1  0  0  0  0
  8  9  1  0  0  0  0
  3  8  1  0  0  0  0
 10 11  2  0  0  0  0
 11 12  1  0  0  0  0
 12 13  1  0  0  0  0
 12 14  2  0  0  0  0
 14 15  1  0  0  0  0
 15 16  2  0  0  0  0
 16 17  1  0  0  0  0
 10 16  1  0  0  0  0
 17 18  2  0  0  0  0
  1 17  1  0  0  0  0
 30 31  1  0  0  0  0
 29 31  1  0  0  0  0
M  END
$$$$
Mol_82
  PyMOL2.5          3D                             0

 20 22  0  0  0  0  0  0  0  0999 V2000
   -6.5084   -2.0545  -21.9033 C   0  0  0  0  0  0  0  0  0  0  0  0
   -6.0912   -1.2915  -20.6758 C   0  0  0  0  0  0  0  0  0  0  0  0
   -6.7517   -1.4577  -19.4763 C   0  0  0  0  0  0  0  0  0  0  0  0
   -6.4210   -0.8022  -18.3498 N   0  0  0  0  0  0  0  0  0  0  0  0
   -5.4025    0.0632  -18.3610 C   0  0  0  0  0  0  0  0  0  0  0  0
   -4.7117    0.2642  -19.5336 C   0  0  0  0  0  0  0  0  0  0  0  0
   -3.6595    1.1781  -19.4846 C   0  0  0  0  0  0  0  0  0  0  0  0
   -2.9527    1.3909  -20.6618 C   0  0  0  0  0  0  0  0  0  0  0  0
   -3.2837    0.7248  -21.8192 C   0  0  0  0  0  0  0  0  0  0  0  0
   -4.3261   -0.1841  -21.8778 C   0  0  0  0  0  0  0  0  0  0  0  0
   -5.0365   -0.3988  -20.6978 C   0  0  0  0  0  0  0  0  0  0  0  0
   -5.1817   -3.7627  -20.9805 O   0  0  0  0  0  0  0  0  0  0  0  0
   -6.1396   -3.4665  -21.7444 C   0  0  0  0  0  0  0  0  0  0  0  0
   -6.8234   -4.5177  -22.4209 N   0  0  0  0  0  0  0  0  0  0  0  0
   -6.2768   -5.8269  -22.1044 C   0  0  0  0  0  0  0  0  0  0  0  0
   -5.7000   -6.3578  -23.3750 C   0  0  0  0  0  0  0  0  0  0  0  0
   -6.2497   -6.4387  -24.5762 C   0  0  0  0  0  0  0  0  0  0  0  0
   -7.5970   -6.0072  -24.9329 C   0  0  0  0  0  0  0  0  0  0  0  0
   -8.2509   -5.0119  -24.3541 C   0  0  0  0  0  0  0  0  0  0  0  0
   -7.8884   -4.0798  -23.2557 C   0  0  0  0  0  0  0  0  0  0  0  0
 12 13  2  0  0  0  0
  1 13  1  0  0  0  0
 13 14  1  0  0  0  0
  1  2  1  0  0  0  0
  2  3  2  0  0  0  0
  3  4  1  0  0  0  0
  4  5  2  0  0  0  0
  5  6  1  0  0  0  0
  6  7  2  0  0  0  0
  7  8  1  0  0  0  0
  8  9  2  0  0  0  0
  9 10  1  0  0  0  0
 10 11  2  0  0  0  0
  2 11  1  0  0  0  0
  6 11  1  0  0  0  0
 14 15  1  0  0  0  0
 15 16  1  0  0  0  0
 16 17  2  0  0  0  0
 17 18  1  0  0  0  0
 18 19  2  0  0  0  0
 19 20  1  0  0  0  0
 14 20  1  0  0  0  0
M  END
$$$$
Mol_83
  PyMOL2.5          3D                             0

 28 31  0  0  0  0  0  0  0  0999 V2000
  -10.5405    0.2889  -22.9855 C   0  0  0  0  0  0  0  0  0  0  0  0
  -11.6128   -0.6924  -23.4412 C   0  0  0  0  0  0  0  0  0  0  0  0
  -11.5415   -1.9533  -22.5716 C   0  0  0  0  0  0  0  0  0  0  0  0
  -12.8288   -2.7176  -22.7905 C   0  0  0  0  0  0  0  0  0  0  0  0
  -10.3235   -2.7286  -22.9491 C   0  0  0  0  0  0  0  0  0  0  0  0
   -9.2464   -1.7685  -23.4741 C   0  0  0  0  0  0  0  0  0  0  0  0
   -9.3233   -0.4873  -22.7894 N   0  0  0  0  0  0  0  0  0  0  0  0
   -8.2746    0.0072  -21.9625 C   0  0  0  0  0  0  0  0  0  0  0  0
   -8.3301    1.1138  -21.3638 O   0  0  0  0  0  0  0  0  0  0  0  0
  -11.2823    2.4791  -23.7842 C   0  0  0  0  0  0  0  0  0  0  0  0
  -11.2010    3.5598  -24.6375 C   0  0  0  0  0  0  0  0  0  0  0  0
  -10.2541    3.6220  -25.6583 C   0  0  0  0  0  0  0  0  0  0  0  0
   -9.3910    2.5622  -25.7941 C   0  0  0  0  0  0  0  0  0  0  0  0
   -9.4791    1.4857  -24.9369 C   0  0  0  0  0  0  0  0  0  0  0  0
  -10.4053    1.3993  -23.9201 C   0  0  0  0  0  0  0  0  0  0  0  0
  -12.9770    3.5409  -22.3180 C   0  0  0  0  0  0  0  0  0  0  0  0
  -12.2290    2.4672  -22.7994 O   0  0  0  0  0  0  0  0  0  0  0  0
   -7.0479   -0.8209  -21.7930 C   0  0  0  0  0  0  0  0  0  0  0  0
   -6.3532   -0.5409  -20.5367 C   0  0  0  0  0  0  0  0  0  0  0  0
   -6.7298   -1.0069  -19.2976 C   0  0  0  0  0  0  0  0  0  0  0  0
   -6.0610   -0.7253  -18.1645 N   0  0  0  0  0  0  0  0  0  0  0  0
   -4.9710    0.0438  -18.2133 C   0  0  0  0  0  0  0  0  0  0  0  0
   -4.5164    0.5598  -19.4260 C   0  0  0  0  0  0  0  0  0  0  0  0
   -3.3900    1.3557  -19.4819 C   0  0  0  0  0  0  0  0  0  0  0  0
   -2.9651    1.8512  -20.6940 C   0  0  0  0  0  0  0  0  0  0  0  0
   -3.6468    1.5693  -21.8792 C   0  0  0  0  0  0  0  0  0  0  0  0
   -4.7686    0.7690  -21.7779 C   0  0  0  0  0  0  0  0  0  0  0  0
   -5.2176    0.2583  -20.5751 C   0  0  0  0  0  0  0  0  0  0  0  0
 16 17  1  0  0  0  0
 10 17  1  0  0  0  0
 10 11  2  0  0  0  0
 11 12  1  0  0  0  0
 12 13  2  0  0  0  0
 13 14  1  0  0  0  0
 14 15  2  0  0  0  0
 10 15  1  0  0  0  0
  1 15  1  0  0  0  0
  1  2  1  0  0  0  0
  2  3  1  0  0  0  0
  3  4  1  0  0  0  0
  3  5  1  0  0  0  0
  5  6  1  0  0  0  0
  6  7  1  0  0  0  0
  7  8  1  0  0  0  0
  1  7  1  0  0  0  0
  8  9  2  0  0  0  0
  8 18  1  0  0  0  0
 18 19  1  0  0  0  0
 19 20  2  0  0  0  0
 20 21  1  0  0  0  0
 21 22  2  0  0  0  0
 22 23  1  0  0  0  0
 23 24  2  0  0  0  0
 24 25  1  0  0  0  0
 25 26  2  0  0  0  0
 26 27  1  0  0  0  0
 27 28  2  0  0  0  0
 19 28  1  0  0  0  0
 23 28  1  0  0  0  0
M  END
$$$$
Mol_84
  PyMOL2.5          3D                             0

 33 37  0  0  0  0  0  0  0  0999 V2000
   -5.2786   -0.4816  -20.2686 C   0  0  0  0  0  0  0  0  0  0  0  0
   -3.9860   -0.0155  -20.4648 C   0  0  0  0  0  0  0  0  0  0  0  0
   -3.7073    0.7304  -21.6030 C   0  0  0  0  0  0  0  0  0  0  0  0
   -4.6892    1.0132  -22.5360 C   0  0  0  0  0  0  0  0  0  0  0  0
   -5.9773    0.5541  -22.3497 C   0  0  0  0  0  0  0  0  0  0  0  0
   -6.2325   -0.1787  -21.2226 C   0  0  0  0  0  0  0  0  0  0  0  0
   -7.0003    0.8658  -23.3506 C   0  0  0  0  0  0  0  0  0  0  0  0
   -6.5921    2.0621  -24.1844 C   0  0  0  0  0  0  0  0  0  0  0  0
   -5.1959    1.8470  -24.7278 C   0  0  0  0  0  0  0  0  0  0  0  0
   -4.3013    1.7661  -23.6360 O   0  0  0  0  0  0  0  0  0  0  0  0
   -7.2419   -0.2114  -24.2926 N   0  0  0  0  0  0  0  0  0  0  0  0
   -8.6283   -0.2985  -24.6083 C   0  0  0  0  0  0  0  0  0  0  0  0
   -9.0648   -0.9672  -25.5670 O   0  0  0  0  0  0  0  0  0  0  0  0
   -9.3432    0.4872  -23.6581 N   0  0  0  0  0  0  0  0  0  0  0  0
   -8.3625    1.0357  -22.7823 C   0  0  0  0  0  0  0  0  0  0  0  0
   -8.6642    1.5862  -21.6741 O   0  0  0  0  0  0  0  0  0  0  0  0
   -6.5447   -0.8001  -24.6620 H   0  0  0  0  0  0  0  0  0  0  0  0
  -10.7457    0.6306  -23.6670 C   0  0  0  0  0  0  0  0  0  0  0  0
  -11.2588    1.8542  -24.0722 C   0  0  0  0  0  0  0  0  0  0  0  0
  -12.6083    2.0565  -24.1029 N   0  0  0  0  0  0  0  0  0  0  0  0
  -13.4714    1.0879  -23.7457 C   0  0  0  0  0  0  0  0  0  0  0  0
  -12.9977   -0.1494  -23.3347 C   0  0  0  0  0  0  0  0  0  0  0  0
  -13.8610   -1.1441  -22.9686 C   0  0  0  0  0  0  0  0  0  0  0  0
  -13.3892   -2.3823  -22.5572 C   0  0  0  0  0  0  0  0  0  0  0  0
  -12.0016   -2.5623  -22.5353 C   0  0  0  0  0  0  0  0  0  0  0  0
  -11.1288   -1.5854  -22.8955 C   0  0  0  0  0  0  0  0  0  0  0  0
  -11.6301   -0.3642  -23.3002 C   0  0  0  0  0  0  0  0  0  0  0  0
   -5.0667   -3.0514  -19.0085 N   0  0  0  0  0  0  0  0  0  0  0  0
   -5.6567   -1.4252  -18.8403 S   0  0  0  0  0  0  0  0  0  0  0  0
   -5.0867   -0.7772  -17.6180 O   0  0  0  0  0  0  0  0  0  0  0  0
   -7.1483   -1.5235  -18.6541 O   0  0  0  0  0  0  0  0  0  0  0  0
   -5.2954   -3.5845  -18.1695 H   0  0  0  0  0  0  0  0  0  0  0  0
   -4.0548   -3.0344  -19.1353 H   0  0  0  0  0  0  0  0  0  0  0  0
 28 29  1  0  0  0  0
 28 32  1  0  0  0  0
 28 33  1  0  0  0  0
 29 30  2  0  0  0  0
 29 31  2  0  0  0  0
  1 29  1  0  0  0  0
  1  2  2  0  0  0  0
  2  3  1  0  0  0  0
  3  4  2  0  0  0  0
  4  5  1  0  0  0  0
  5  6  2  0  0  0  0
  1  6  1  0  0  0  0
  5  7  1  0  0  0  0
  7  8  1  0  0  0  0
  7 11  1  0  0  0  0
  8  9  1  0  0  0  0
  9 10  1  0  0  0  0
  4 10  1  0  0  0  0
 11 12  1  0  0  0  0
 11 17  1  0  0  0  0
 12 13  2  0  0  0  0
 12 14  1  0  0  0  0
 14 18  1  0  0  0  0
 14 15  1  0  0  0  0
 18 19  2  0  0  0  0
 19 20  1  0  0  0  0
 20 21  2  0  0  0  0
 21 22  1  0  0  0  0
 22 23  2  0  0  0  0
 23 24  1  0  0  0  0
 24 25  2  0  0  0  0
 25 26  1  0  0  0  0
 26 27  2  0  0  0  0
 18 27  1  0  0  0  0
 22 27  1  0  0  0  0
 15 16  2  0  0  0  0
  7 15  1  0  0  0  0
M  END
$$$$
Mol_85
  PyMOL2.5          3D                             0

 38 43  0  0  0  0  0  0  0  0999 V2000
   -3.2069   -0.7211  -24.3015 C   0  0  0  0  0  0  0  0  0  0  0  0
   -3.5338    0.7146  -24.6379 C   0  0  0  0  0  0  0  0  0  0  0  0
   -4.9936    0.7348  -24.9846 C   0  0  0  0  0  0  0  0  0  0  0  0
   -5.6568    0.8139  -23.7061 N   0  0  0  0  0  0  0  0  0  0  0  0
   -4.7046    1.2180  -22.7300 C   0  0  0  0  0  0  0  0  0  0  0  0
   -4.9312    1.2701  -21.4888 O   0  0  0  0  0  0  0  0  0  0  0  0
   -3.4257    1.5587  -23.4247 C   0  0  0  0  0  0  0  0  0  0  0  0
   -2.2229    1.2214  -22.6217 C   0  0  0  0  0  0  0  0  0  0  0  0
   -1.0332    1.7644  -23.2428 N   0  0  0  0  0  0  0  0  0  0  0  0
   -1.0105    3.1543  -23.5490 C   0  0  0  0  0  0  0  0  0  0  0  0
    0.0567    3.8151  -23.6107 O   0  0  0  0  0  0  0  0  0  0  0  0
   -2.2992    3.7914  -23.7927 C   0  0  0  0  0  0  0  0  0  0  0  0
   -2.3168    5.1302  -24.0726 C   0  0  0  0  0  0  0  0  0  0  0  0
   -3.5036    5.7910  -24.2954 C   0  0  0  0  0  0  0  0  0  0  0  0
   -4.6711    5.0610  -24.2272 C   0  0  0  0  0  0  0  0  0  0  0  0
   -5.8883    5.6411  -24.4351 F   0  0  0  0  0  0  0  0  0  0  0  0
   -4.6354    3.7121  -23.9442 C   0  0  0  0  0  0  0  0  0  0  0  0
   -3.4606    3.0169  -23.7155 C   0  0  0  0  0  0  0  0  0  0  0  0
   -7.0521    0.5305  -23.5446 C   0  0  0  0  0  0  0  0  0  0  0  0
   -8.0269    1.2067  -24.2822 C   0  0  0  0  0  0  0  0  0  0  0  0
   -9.3408    0.9583  -24.1433 N   0  0  0  0  0  0  0  0  0  0  0  0
   -9.8012    0.0412  -23.2837 C   0  0  0  0  0  0  0  0  0  0  0  0
   -8.9000   -0.6656  -22.5222 C   0  0  0  0  0  0  0  0  0  0  0  0
   -9.3813   -1.6083  -21.6390 C   0  0  0  0  0  0  0  0  0  0  0  0
   -8.5192   -2.3438  -20.8520 C   0  0  0  0  0  0  0  0  0  0  0  0
   -7.1719   -2.0839  -20.9995 C   0  0  0  0  0  0  0  0  0  0  0  0
   -6.6960   -1.1435  -21.8808 C   0  0  0  0  0  0  0  0  0  0  0  0
   -7.5309   -0.4125  -22.6613 C   0  0  0  0  0  0  0  0  0  0  0  0
    0.1401    0.9728  -23.5589 C   0  0  0  0  0  0  0  0  0  0  0  0
    0.3973    0.9449  -25.0296 C   0  0  0  0  0  0  0  0  0  0  0  0
    1.0848    0.0236  -25.5640 O   0  0  0  0  0  0  0  0  0  0  0  0
   -0.1717    2.0069  -25.7900 N   0  0  0  0  0  0  0  0  0  0  0  0
   -0.7016    2.7097  -25.3490 H   0  0  0  0  0  0  0  0  0  0  0  0
    0.0392    2.0355  -27.2025 C   0  0  0  0  0  0  0  0  0  0  0  0
    0.3837    3.4694  -27.6273 C   0  0  0  0  0  0  0  0  0  0  0  0
   -0.6417    4.3914  -27.6135 F   0  0  0  0  0  0  0  0  0  0  0  0
    1.5353    3.6869  -28.5270 C   0  0  0  0  0  0  0  0  0  0  0  0
    1.6684    3.9820  -27.0518 C   0  0  0  0  0  0  0  0  0  0  0  0
  1  2  1  0  0  0  0
  2  3  1  0  0  0  0
  3  4  1  0  0  0  0
  4 19  1  0  0  0  0
  4  5  1  0  0  0  0
 19 20  2  0  0  0  0
 20 21  1  0  0  0  0
 21 22  2  0  0  0  0
 22 23  1  0  0  0  0
 23 24  2  0  0  0  0
 24 25  1  0  0  0  0
 25 26  2  0  0  0  0
 26 27  1  0  0  0  0
 27 28  2  0  0  0  0
 19 28  1  0  0  0  0
 23 28  1  0  0  0  0
  5  6  2  0  0  0  0
  5  7  1  0  0  0  0
  7  8  1  0  0  0  0
  2  7  1  0  0  0  0
  8  9  1  0  0  0  0
  9 29  1  0  0  0  0
  9 10  1  0  0  0  0
 29 30  1  0  0  0  0
 30 31  2  0  0  0  0
 30 32  1  0  0  0  0
 32 34  1  0  0  0  0
 32 33  1  0  0  0  0
 34 35  1  0  0  0  0
 35 36  1  0  0  0  0
 35 37  1  0  0  0  0
 37 38  1  0  0  0  0
 35 38  1  0  0  0  0
 10 11  2  0  0  0  0
 10 12  1  0  0  0  0
 12 13  2  0  0  0  0
 13 14  1  0  0  0  0
 14 15  2  0  0  0  0
 15 16  1  0  0  0  0
 15 17  1  0  0  0  0
 17 18  2  0  0  0  0
 12 18  1  0  0  0  0
  7 18  1  0  0  0  0
M  END
$$$$
Mol_86
  PyMOL2.5          3D                             0

 35 40  0  0  0  0  0  0  0  0999 V2000
   -6.8777   -2.7488  -22.0963 N   0  0  0  0  0  0  0  0  0  0  0  0
   -7.8383   -1.9018  -22.7588 C   0  0  0  0  0  0  0  0  0  0  0  0
   -7.4036   -0.5127  -23.0541 C   0  0  0  0  0  0  0  0  0  0  0  0
   -8.4978    0.3908  -22.5820 C   0  0  0  0  0  0  0  0  0  0  0  0
   -8.7307    0.6657  -21.3553 O   0  0  0  0  0  0  0  0  0  0  0  0
   -9.2442    0.9033  -23.6714 N   0  0  0  0  0  0  0  0  0  0  0  0
   -8.2785    0.9455  -24.7810 C   0  0  0  0  0  0  0  0  0  0  0  0
   -7.3275   -0.1881  -24.5127 C   0  0  0  0  0  0  0  0  0  0  0  0
   -6.0675   -0.3162  -25.2509 C   0  0  0  0  0  0  0  0  0  0  0  0
   -7.2287   -1.1891  -25.5879 C   0  0  0  0  0  0  0  0  0  0  0  0
   -6.2005   -0.0551  -22.3092 C   0  0  0  0  0  0  0  0  0  0  0  0
   -5.8584    1.2697  -22.4074 C   0  0  0  0  0  0  0  0  0  0  0  0
   -4.7370    1.7392  -21.7240 C   0  0  0  0  0  0  0  0  0  0  0  0
   -4.2846    3.4299  -21.8380 Cl  0  0  0  0  0  0  0  0  0  0  0  0
   -3.9484    0.9260  -20.9466 C   0  0  0  0  0  0  0  0  0  0  0  0
   -4.2978   -0.4057  -20.8518 C   0  0  0  0  0  0  0  0  0  0  0  0
   -5.4113   -0.8643  -21.5324 C   0  0  0  0  0  0  0  0  0  0  0  0
   -5.7354   -2.2788  -21.3981 C   0  0  0  0  0  0  0  0  0  0  0  0
   -5.0307   -3.0425  -20.6936 O   0  0  0  0  0  0  0  0  0  0  0  0
  -10.6141    1.2900  -23.6918 C   0  0  0  0  0  0  0  0  0  0  0  0
  -11.0014    2.6020  -23.9349 C   0  0  0  0  0  0  0  0  0  0  0  0
  -12.3229    2.8546  -23.9308 N   0  0  0  0  0  0  0  0  0  0  0  0
  -13.2653    1.9202  -23.7078 C   0  0  0  0  0  0  0  0  0  0  0  0
  -12.9127    0.6070  -23.4631 C   0  0  0  0  0  0  0  0  0  0  0  0
  -13.8526   -0.3826  -23.2294 C   0  0  0  0  0  0  0  0  0  0  0  0
  -13.4352   -1.6899  -22.9884 C   0  0  0  0  0  0  0  0  0  0  0  0
  -12.0830   -2.0238  -22.9777 C   0  0  0  0  0  0  0  0  0  0  0  0
  -11.1720   -1.0185  -23.2134 C   0  0  0  0  0  0  0  0  0  0  0  0
  -11.5665    0.3004  -23.4576 C   0  0  0  0  0  0  0  0  0  0  0  0
   -7.0753   -4.1904  -22.1268 C   0  0  0  0  0  0  0  0  0  0  0  0
   -8.4986   -5.9224  -25.2370 C   0  0  0  0  0  0  0  0  0  0  0  0
   -8.3562   -5.3838  -23.8808 N   0  0  0  0  0  0  0  0  0  0  0  0
   -7.1698   -4.7176  -23.5124 C   0  0  0  0  0  0  0  0  0  0  0  0
   -6.2660   -4.6078  -24.3687 O   0  0  0  0  0  0  0  0  0  0  0  0
   -9.0871   -5.4871  -23.2294 H   0  0  0  0  0  0  0  0  0  0  0  0
 31 32  1  0  0  0  0
 32 33  1  0  0  0  0
 32 35  1  0  0  0  0
 33 34  2  0  0  0  0
 30 33  1  0  0  0  0
  1 30  1  0  0  0  0
  1  2  1  0  0  0  0
  2  3  1  0  0  0  0
  3  4  1  0  0  0  0
  3 11  1  0  0  0  0
  4  5  2  0  0  0  0
  4  6  1  0  0  0  0
  6 20  1  0  0  0  0
  6  7  1  0  0  0  0
 20 21  2  0  0  0  0
 21 22  1  0  0  0  0
 22 23  2  0  0  0  0
 23 24  1  0  0  0  0
 24 25  2  0  0  0  0
 25 26  1  0  0  0  0
 26 27  2  0  0  0  0
 27 28  1  0  0  0  0
 28 29  2  0  0  0  0
 20 29  1  0  0  0  0
 24 29  1  0  0  0  0
  7  8  1  0  0  0  0
  8  9  1  0  0  0  0
  3  8  1  0  0  0  0
  9 10  1  0  0  0  0
  8 10  1  0  0  0  0
 11 12  2  0  0  0  0
 12 13  1  0  0  0  0
 13 14  1  0  0  0  0
 13 15  2  0  0  0  0
 15 16  1  0  0  0  0
 16 17  2  0  0  0  0
 17 18  1  0  0  0  0
 11 17  1  0  0  0  0
 18 19  2  0  0  0  0
  1 18  1  0  0  0  0
M  END
$$$$
Mol_87
  PyMOL2.5          3D                             0

 21 23  0  0  0  0  0  0  0  0999 V2000
   -6.6768   -2.1414  -21.4364 C   0  0  0  0  0  0  0  0  0  0  0  0
   -5.9800   -5.9910  -26.3394 C   0  0  0  0  0  0  0  0  0  0  0  0
   -6.1045   -5.2705  -25.0149 C   0  0  0  0  0  0  0  0  0  0  0  0
   -7.5294   -4.9960  -24.6124 C   0  0  0  0  0  0  0  0  0  0  0  0
   -7.4797   -4.0376  -23.4451 C   0  0  0  0  0  0  0  0  0  0  0  0
   -6.4514   -4.4179  -22.4969 N   0  0  0  0  0  0  0  0  0  0  0  0
   -6.0448   -3.4865  -21.4946 C   0  0  0  0  0  0  0  0  0  0  0  0
   -5.1446   -3.8278  -20.6662 O   0  0  0  0  0  0  0  0  0  0  0  0
   -5.8368   -5.7314  -22.5632 C   0  0  0  0  0  0  0  0  0  0  0  0
   -6.6769   -6.7919  -21.8821 C   0  0  0  0  0  0  0  0  0  0  0  0
   -5.4706   -6.1371  -23.9588 C   0  0  0  0  0  0  0  0  0  0  0  0
   -6.1118   -1.2978  -20.3830 C   0  0  0  0  0  0  0  0  0  0  0  0
   -6.6737   -1.3994  -19.1083 C   0  0  0  0  0  0  0  0  0  0  0  0
   -6.2179   -0.6612  -18.0791 N   0  0  0  0  0  0  0  0  0  0  0  0
   -5.1979    0.2074  -18.2408 C   0  0  0  0  0  0  0  0  0  0  0  0
   -4.6216    0.3247  -19.5074 C   0  0  0  0  0  0  0  0  0  0  0  0
   -3.5819    1.2185  -19.6458 C   0  0  0  0  0  0  0  0  0  0  0  0
   -3.0104    1.3350  -20.9015 C   0  0  0  0  0  0  0  0  0  0  0  0
   -3.4608    0.5887  -21.9702 C   0  0  0  0  0  0  0  0  0  0  0  0
   -4.5032   -0.3077  -21.8323 C   0  0  0  0  0  0  0  0  0  0  0  0
   -5.0746   -0.4256  -20.5824 C   0  0  0  0  0  0  0  0  0  0  0  0
  2  3  1  0  0  0  0
  3  4  1  0  0  0  0
  4  5  1  0  0  0  0
  5  6  1  0  0  0  0
  6  7  1  0  0  0  0
  6  9  1  0  0  0  0
  7  8  2  0  0  0  0
  1  7  1  0  0  0  0
  1 12  1  0  0  0  0
 12 13  2  0  0  0  0
 13 14  1  0  0  0  0
 14 15  2  0  0  0  0
 15 16  1  0  0  0  0
 16 17  2  0  0  0  0
 17 18  1  0  0  0  0
 18 19  2  0  0  0  0
 19 20  1  0  0  0  0
 20 21  2  0  0  0  0
 12 21  1  0  0  0  0
 16 21  1  0  0  0  0
  9 10  1  0  0  0  0
  9 11  1  0  0  0  0
  3 11  1  0  0  0  0
M  END
$$$$
Mol_88
  PyMOL2.5          3D                             0

 35 40  0  0  0  0  0  0  0  0999 V2000
   -7.0921   -1.0491  -22.3283 C   0  0  0  0  0  0  0  0  0  0  0  0
   -7.7512   -2.3964  -22.3924 C   0  0  0  0  0  0  0  0  0  0  0  0
   -9.1058   -2.2580  -21.7301 C   0  0  0  0  0  0  0  0  0  0  0  0
  -10.0765   -2.3940  -22.8015 N   0  0  0  0  0  0  0  0  0  0  0  0
   -9.4454   -3.1838  -23.8036 C   0  0  0  0  0  0  0  0  0  0  0  0
  -10.0369   -3.9819  -24.6043 O   0  0  0  0  0  0  0  0  0  0  0  0
   -7.9569   -2.9314  -23.7747 C   0  0  0  0  0  0  0  0  0  0  0  0
   -7.7171   -1.8842  -24.8032 C   0  0  0  0  0  0  0  0  0  0  0  0
   -6.3907   -1.8684  -25.3782 N   0  0  0  0  0  0  0  0  0  0  0  0
   -5.7113   -3.0954  -25.5104 C   0  0  0  0  0  0  0  0  0  0  0  0
   -4.7246   -3.1923  -26.2582 O   0  0  0  0  0  0  0  0  0  0  0  0
   -6.1265   -4.3028  -24.7830 C   0  0  0  0  0  0  0  0  0  0  0  0
   -5.4370   -5.5104  -24.9357 C   0  0  0  0  0  0  0  0  0  0  0  0
   -5.9118   -6.5906  -24.2081 C   0  0  0  0  0  0  0  0  0  0  0  0
   -6.9973   -6.4793  -23.3855 C   0  0  0  0  0  0  0  0  0  0  0  0
   -7.4335   -7.5558  -22.6899 F   0  0  0  0  0  0  0  0  0  0  0  0
   -7.6677   -5.2960  -23.2399 C   0  0  0  0  0  0  0  0  0  0  0  0
   -7.2099   -4.1901  -23.9622 C   0  0  0  0  0  0  0  0  0  0  0  0
  -11.3838   -1.8594  -22.8564 C   0  0  0  0  0  0  0  0  0  0  0  0
  -12.5249   -2.5788  -22.5675 C   0  0  0  0  0  0  0  0  0  0  0  0
  -13.7568   -2.0248  -22.6337 N   0  0  0  0  0  0  0  0  0  0  0  0
  -13.9085   -0.7223  -22.9927 C   0  0  0  0  0  0  0  0  0  0  0  0
  -12.7858    0.0293  -23.2894 C   0  0  0  0  0  0  0  0  0  0  0  0
  -12.8868    1.3526  -23.6582 C   0  0  0  0  0  0  0  0  0  0  0  0
  -11.7752    2.1084  -23.9553 C   0  0  0  0  0  0  0  0  0  0  0  0
  -10.4962    1.5696  -23.8968 C   0  0  0  0  0  0  0  0  0  0  0  0
  -10.4025    0.2287  -23.5226 C   0  0  0  0  0  0  0  0  0  0  0  0
  -11.5193   -0.5218  -23.2266 C   0  0  0  0  0  0  0  0  0  0  0  0
   -5.8613   -0.5833  -25.7823 C   0  0  0  0  0  0  0  0  0  0  0  0
   -6.8363    0.2885  -26.4630 C   0  0  0  0  0  0  0  0  0  0  0  0
   -7.2855    1.4839  -25.9004 C   0  0  0  0  0  0  0  0  0  0  0  0
   -8.1841    2.0832  -26.7794 C   0  0  0  0  0  0  0  0  0  0  0  0
   -8.2564    1.2468  -27.8399 N   0  0  0  0  0  0  0  0  0  0  0  0
   -7.4566    0.2013  -27.6308 N   0  0  0  0  0  0  0  0  0  0  0  0
   -7.3144   -0.8645  -28.5987 C   0  0  0  0  0  0  0  0  0  0  0  0
  1  2  1  0  0  0  0
  2  3  1  0  0  0  0
  3  4  1  0  0  0  0
  4 19  1  0  0  0  0
  4  5  1  0  0  0  0
 19 20  2  0  0  0  0
 20 21  1  0  0  0  0
 21 22  2  0  0  0  0
 22 23  1  0  0  0  0
 23 24  2  0  0  0  0
 24 25  1  0  0  0  0
 25 26  2  0  0  0  0
 26 27  1  0  0  0  0
 27 28  2  0  0  0  0
 19 28  1  0  0  0  0
 23 28  1  0  0  0  0
  5  6  2  0  0  0  0
  5  7  1  0  0  0  0
  7  8  1  0  0  0  0
  2  7  1  0  0  0  0
  8  9  1  0  0  0  0
  9 29  1  0  0  0  0
  9 10  1  0  0  0  0
 29 30  1  0  0  0  0
 30 31  2  0  0  0  0
 31 32  1  0  0  0  0
 32 33  2  0  0  0  0
 33 34  1  0  0  0  0
 34 35  1  0  0  0  0
 30 34  1  0  0  0  0
 10 11  2  0  0  0  0
 10 12  1  0  0  0  0
 12 13  2  0  0  0  0
 13 14  1  0  0  0  0
 14 15  2  0  0  0  0
 15 16  1  0  0  0  0
 15 17  1  0  0  0  0
 17 18  2  0  0  0  0
 12 18  1  0  0  0  0
  7 18  1  0  0  0  0
M  END
$$$$
Mol_89
  PyMOL2.5          3D                             0

 22 24  0  0  0  0  0  0  0  0999 V2000
   -8.1833   -0.6234  -25.8036 O   0  0  0  0  0  0  0  0  0  0  0  0
   -8.5503   -1.4695  -24.9418 C   0  0  0  0  0  0  0  0  0  0  0  0
   -8.5855   -2.8326  -25.3329 N   0  0  0  0  0  0  0  0  0  0  0  0
   -8.1765   -3.1474  -26.6878 C   0  0  0  0  0  0  0  0  0  0  0  0
   -8.9689   -4.3316  -27.1856 C   0  0  0  0  0  0  0  0  0  0  0  0
   -8.7732   -5.5319  -26.3109 C   0  0  0  0  0  0  0  0  0  0  0  0
   -8.4100   -5.2222  -24.8950 C   0  0  0  0  0  0  0  0  0  0  0  0
   -9.0137   -3.8903  -24.4351 C   0  0  0  0  0  0  0  0  0  0  0  0
  -10.0037   -6.4335  -26.3019 C   0  0  0  0  0  0  0  0  0  0  0  0
   -9.6220   -7.7531  -26.2272 F   0  0  0  0  0  0  0  0  0  0  0  0
  -10.7005   -6.2416  -27.4887 F   0  0  0  0  0  0  0  0  0  0  0  0
   -8.9208   -0.9997  -23.5765 C   0  0  0  0  0  0  0  0  0  0  0  0
  -10.1990   -0.2338  -23.6054 C   0  0  0  0  0  0  0  0  0  0  0  0
  -10.2179    1.1086  -23.9953 C   0  0  0  0  0  0  0  0  0  0  0  0
  -11.3637    1.8190  -24.0410 N   0  0  0  0  0  0  0  0  0  0  0  0
  -12.5269    1.2358  -23.7061 C   0  0  0  0  0  0  0  0  0  0  0  0
  -12.5878   -0.0983  -23.3068 C   0  0  0  0  0  0  0  0  0  0  0  0
  -13.8080   -0.6384  -22.9705 C   0  0  0  0  0  0  0  0  0  0  0  0
  -13.8444   -1.9654  -22.5708 C   0  0  0  0  0  0  0  0  0  0  0  0
  -12.6844   -2.7138  -22.5163 C   0  0  0  0  0  0  0  0  0  0  0  0
  -11.4578   -2.1463  -22.8616 C   0  0  0  0  0  0  0  0  0  0  0  0
  -11.4042   -0.8123  -23.2656 C   0  0  0  0  0  0  0  0  0  0  0  0
  1  2  2  0  0  0  0
  2 12  1  0  0  0  0
  2  3  1  0  0  0  0
 12 13  1  0  0  0  0
 13 14  2  0  0  0  0
 14 15  1  0  0  0  0
 15 16  2  0  0  0  0
 16 17  1  0  0  0  0
 17 18  2  0  0  0  0
 18 19  1  0  0  0  0
 19 20  2  0  0  0  0
 20 21  1  0  0  0  0
 21 22  2  0  0  0  0
 13 22  1  0  0  0  0
 17 22  1  0  0  0  0
  3  4  1  0  0  0  0
  4  5  1  0  0  0  0
  5  6  1  0  0  0  0
  6  9  1  0  0  0  0
  6  7  1  0  0  0  0
  9 10  1  0  0  0  0
  9 11  1  0  0  0  0
  7  8  1  0  0  0  0
  3  8  1  0  0  0  0
M  END
$$$$
Mol_90
  PyMOL2.5          3D                             0

 21 23  0  0  0  0  0  0  0  0999 V2000
   -6.4577   -1.8423  -21.5214 C   0  0  0  0  0  0  0  0  0  0  0  0
   -6.0728   -6.6119  -25.3545 C   0  0  0  0  0  0  0  0  0  0  0  0
   -7.2064   -6.0396  -24.5272 C   0  0  0  0  0  0  0  0  0  0  0  0
   -8.4465   -6.8152  -24.9882 C   0  0  0  0  0  0  0  0  0  0  0  0
   -7.0623   -6.3755  -23.0684 C   0  0  0  0  0  0  0  0  0  0  0  0
   -5.9227   -5.5604  -22.5012 C   0  0  0  0  0  0  0  0  0  0  0  0
   -6.3687   -4.1782  -22.5723 N   0  0  0  0  0  0  0  0  0  0  0  0
   -5.9886   -3.2383  -21.5379 C   0  0  0  0  0  0  0  0  0  0  0  0
   -5.2216   -3.5911  -20.5954 O   0  0  0  0  0  0  0  0  0  0  0  0
   -7.1612   -3.6549  -23.6546 C   0  0  0  0  0  0  0  0  0  0  0  0
   -7.4602   -4.6015  -24.7618 C   0  0  0  0  0  0  0  0  0  0  0  0
   -6.0482   -1.0837  -20.3239 C   0  0  0  0  0  0  0  0  0  0  0  0
   -6.6903   -1.2245  -19.1183 C   0  0  0  0  0  0  0  0  0  0  0  0
   -6.2098   -0.4917  -18.0755 N   0  0  0  0  0  0  0  0  0  0  0  0
   -5.1581    0.3402  -18.1769 C   0  0  0  0  0  0  0  0  0  0  0  0
   -4.5007    0.4940  -19.3800 C   0  0  0  0  0  0  0  0  0  0  0  0
   -3.4253    1.3214  -19.5512 C   0  0  0  0  0  0  0  0  0  0  0  0
   -2.7647    1.4794  -20.7436 C   0  0  0  0  0  0  0  0  0  0  0  0
   -3.2162    0.7584  -21.8328 C   0  0  0  0  0  0  0  0  0  0  0  0
   -4.3095   -0.0907  -21.6819 C   0  0  0  0  0  0  0  0  0  0  0  0
   -4.9549   -0.2320  -20.4747 C   0  0  0  0  0  0  0  0  0  0  0  0
  2  3  1  0  0  0  0
  3  4  1  0  0  0  0
  3  5  1  0  0  0  0
  5  6  1  0  0  0  0
  6  7  1  0  0  0  0
  7  8  1  0  0  0  0
  7 10  1  0  0  0  0
  8  9  2  0  0  0  0
  1  8  1  0  0  0  0
  1 12  1  0  0  0  0
 12 13  2  0  0  0  0
 13 14  1  0  0  0  0
 14 15  2  0  0  0  0
 15 16  1  0  0  0  0
 16 17  2  0  0  0  0
 17 18  1  0  0  0  0
 18 19  2  0  0  0  0
 19 20  1  0  0  0  0
 20 21  2  0  0  0  0
 12 21  1  0  0  0  0
 16 21  1  0  0  0  0
 10 11  1  0  0  0  0
  3 11  1  0  0  0  0
M  END
$$$$
Mol_91
  PyMOL2.5          3D                             0

 40 44  0  0  0  0  0  0  0  0999 V2000
   -6.2767   -2.7168  -26.5531 N   0  0  0  0  0  0  0  0  0  0  0  0
   -6.3833   -2.9363  -25.1336 C   0  0  0  0  0  0  0  0  0  0  0  0
   -7.5945   -3.7003  -24.7861 C   0  0  0  0  0  0  0  0  0  0  0  0
   -8.7996   -2.7945  -24.9266 C   0  0  0  0  0  0  0  0  0  0  0  0
   -9.7153   -2.8491  -25.7777 O   0  0  0  0  0  0  0  0  0  0  0  0
   -8.6278   -1.8617  -23.8407 N   0  0  0  0  0  0  0  0  0  0  0  0
   -7.9006   -2.5390  -22.7866 C   0  0  0  0  0  0  0  0  0  0  0  0
   -7.7075   -3.9809  -23.2950 C   0  0  0  0  0  0  0  0  0  0  0  0
   -7.8171   -4.8355  -25.6622 C   0  0  0  0  0  0  0  0  0  0  0  0
   -8.5668   -5.9519  -25.2627 C   0  0  0  0  0  0  0  0  0  0  0  0
   -8.7820   -7.0203  -26.1374 C   0  0  0  0  0  0  0  0  0  0  0  0
   -9.5109   -8.0966  -25.7368 F   0  0  0  0  0  0  0  0  0  0  0  0
   -8.2786   -7.0363  -27.4179 C   0  0  0  0  0  0  0  0  0  0  0  0
   -7.5434   -5.9440  -27.8119 C   0  0  0  0  0  0  0  0  0  0  0  0
   -7.3319   -4.8947  -26.9522 C   0  0  0  0  0  0  0  0  0  0  0  0
   -6.5189   -3.7905  -27.4468 C   0  0  0  0  0  0  0  0  0  0  0  0
   -6.0508   -3.7727  -28.5950 O   0  0  0  0  0  0  0  0  0  0  0  0
   -9.1061   -0.5263  -23.8451 C   0  0  0  0  0  0  0  0  0  0  0  0
   -8.3140    0.5783  -24.0169 C   0  0  0  0  0  0  0  0  0  0  0  0
   -8.7958    1.8409  -24.0170 N   0  0  0  0  0  0  0  0  0  0  0  0
  -10.1063    2.0861  -23.8449 C   0  0  0  0  0  0  0  0  0  0  0  0
  -10.9579    1.0151  -23.6665 C   0  0  0  0  0  0  0  0  0  0  0  0
  -12.2991    1.3109  -23.4928 C   0  0  0  0  0  0  0  0  0  0  0  0
  -13.1857    0.2757  -23.3114 C   0  0  0  0  0  0  0  0  0  0  0  0
  -12.7145   -1.0182  -23.3080 C   0  0  0  0  0  0  0  0  0  0  0  0
  -11.3699   -1.3276  -23.4816 C   0  0  0  0  0  0  0  0  0  0  0  0
  -10.4720   -0.2801  -23.6653 C   0  0  0  0  0  0  0  0  0  0  0  0
   -5.8906   -1.4440  -27.0632 C   0  0  0  0  0  0  0  0  0  0  0  0
   -7.7596    1.8352  -27.5266 C   0  0  0  0  0  0  0  0  0  0  0  0
   -6.7512    0.8729  -27.1638 N   0  0  0  0  0  0  0  0  0  0  0  0
   -6.9471   -0.5241  -27.4557 C   0  0  0  0  0  0  0  0  0  0  0  0
   -8.0233   -0.8102  -28.0263 O   0  0  0  0  0  0  0  0  0  0  0  0
   -5.9266    1.1704  -26.7156 H   0  0  0  0  0  0  0  0  0  0  0  0
   -6.4683   -4.5086  -22.6825 C   0  0  0  0  0  0  0  0  0  0  0  0
   -6.3939   -6.2394  -22.3870 S   0  0  0  0  0  0  0  0  0  0  0  0
   -5.6376   -6.5115  -21.0860 O   0  0  0  0  0  0  0  0  0  0  0  0
   -7.7976   -6.7904  -22.2652 O   0  0  0  0  0  0  0  0  0  0  0  0
   -5.5543   -7.0580  -23.6163 N   0  0  0  0  0  0  0  0  0  0  0  0
   -4.7298   -6.2671  -24.4544 C   0  0  0  0  0  0  0  0  0  0  0  0
   -6.2447   -7.5203  -24.2081 H   0  0  0  0  0  0  0  0  0  0  0  0
 29 30  1  0  0  0  0
 30 31  1  0  0  0  0
 30 33  1  0  0  0  0
 31 32  2  0  0  0  0
 28 31  1  0  0  0  0
  1 28  1  0  0  0  0
  1  2  1  0  0  0  0
  2  3  1  0  0  0  0
  3  4  1  0  0  0  0
  3  9  1  0  0  0  0
  4  5  2  0  0  0  0
  4  6  1  0  0  0  0
  6 18  1  0  0  0  0
  6  7  1  0  0  0  0
 18 19  2  0  0  0  0
 19 20  1  0  0  0  0
 20 21  2  0  0  0  0
 21 22  1  0  0  0  0
 22 23  2  0  0  0  0
 23 24  1  0  0  0  0
 24 25  2  0  0  0  0
 25 26  1  0  0  0  0
 26 27  2  0  0  0  0
 18 27  1  0  0  0  0
 22 27  1  0  0  0  0
  7  8  1  0  0  0  0
  8 34  1  0  0  0  0
  3  8  1  0  0  0  0
 34 35  1  0  0  0  0
 35 36  2  0  0  0  0
 35 37  2  0  0  0  0
 35 38  1  0  0  0  0
 38 39  1  0  0  0  0
 38 40  1  0  0  0  0
  9 10  2  0  0  0  0
 10 11  1  0  0  0  0
 11 12  1  0  0  0  0
 11 13  2  0  0  0  0
 13 14  1  0  0  0  0
 14 15  2  0  0  0  0
 15 16  1  0  0  0  0
  9 15  1  0  0  0  0
 16 17  2  0  0  0  0
  1 16  1  0  0  0  0
M  END
$$$$
Mol_92
  PyMOL2.5          3D                             0

 42 47  0  0  0  0  0  0  0  0999 V2000
   -5.2338   -0.9916  -21.5294 N   0  0  0  0  0  0  0  0  0  0  0  0
   -6.3928   -1.3263  -22.2905 C   0  0  0  0  0  0  0  0  0  0  0  0
   -6.9039   -0.3301  -23.2631 C   0  0  0  0  0  0  0  0  0  0  0  0
   -8.2112    0.1482  -22.7352 C   0  0  0  0  0  0  0  0  0  0  0  0
   -8.4334    0.6997  -21.6148 O   0  0  0  0  0  0  0  0  0  0  0  0
   -9.2321   -0.0908  -23.6700 N   0  0  0  0  0  0  0  0  0  0  0  0
   -8.7146   -0.9166  -24.7204 C   0  0  0  0  0  0  0  0  0  0  0  0
   -7.2319   -0.8465  -24.6278 C   0  0  0  0  0  0  0  0  0  0  0  0
   -6.0728    0.9158  -23.3666 C   0  0  0  0  0  0  0  0  0  0  0  0
   -6.4871    1.9081  -24.2529 C   0  0  0  0  0  0  0  0  0  0  0  0
   -5.7415    3.0678  -24.4002 C   0  0  0  0  0  0  0  0  0  0  0  0
   -6.2479    4.3199  -25.5135 Cl  0  0  0  0  0  0  0  0  0  0  0  0
   -4.5866    3.2812  -23.6913 C   0  0  0  0  0  0  0  0  0  0  0  0
   -4.1700    2.3012  -22.8091 C   0  0  0  0  0  0  0  0  0  0  0  0
   -4.9246    1.1508  -22.6741 C   0  0  0  0  0  0  0  0  0  0  0  0
   -4.4460    0.1759  -21.7013 C   0  0  0  0  0  0  0  0  0  0  0  0
   -3.3982    0.3542  -21.0513 O   0  0  0  0  0  0  0  0  0  0  0  0
  -10.5850    0.3698  -23.6429 C   0  0  0  0  0  0  0  0  0  0  0  0
  -10.8056    1.6985  -24.0182 C   0  0  0  0  0  0  0  0  0  0  0  0
  -12.0711    2.2095  -24.0285 N   0  0  0  0  0  0  0  0  0  0  0  0
  -13.1135    1.4088  -23.6695 C   0  0  0  0  0  0  0  0  0  0  0  0
  -12.9276    0.1129  -23.2999 C   0  0  0  0  0  0  0  0  0  0  0  0
  -14.0347   -0.6484  -22.9508 C   0  0  0  0  0  0  0  0  0  0  0  0
  -13.8110   -1.9639  -22.5849 C   0  0  0  0  0  0  0  0  0  0  0  0
  -12.5378   -2.4895  -22.5706 C   0  0  0  0  0  0  0  0  0  0  0  0
  -11.4490   -1.7165  -22.9217 C   0  0  0  0  0  0  0  0  0  0  0  0
  -11.6534   -0.3947  -23.2907 C   0  0  0  0  0  0  0  0  0  0  0  0
   -4.7857   -1.9193  -20.4870 C   0  0  0  0  0  0  0  0  0  0  0  0
   -5.4751    0.2379  -17.3649 C   0  0  0  0  0  0  0  0  0  0  0  0
   -5.0421   -0.2642  -18.6518 N   0  0  0  0  0  0  0  0  0  0  0  0
   -5.3133   -1.5586  -19.1408 C   0  0  0  0  0  0  0  0  0  0  0  0
   -5.9851   -2.3958  -18.4574 O   0  0  0  0  0  0  0  0  0  0  0  0
   -4.5210    0.3416  -19.2268 H   0  0  0  0  0  0  0  0  0  0  0  0
   -6.5618   -2.1590  -24.9810 C   0  0  0  0  0  0  0  0  0  0  0  0
   -7.4472   -3.2253  -25.3524 N   0  0  0  0  0  0  0  0  0  0  0  0
   -8.0987   -3.0273  -26.0635 H   0  0  0  0  0  0  0  0  0  0  0  0
   -7.4854   -4.5234  -24.8104 C   0  0  0  0  0  0  0  0  0  0  0  0
   -7.4285   -4.5946  -23.4094 C   0  0  0  0  0  0  0  0  0  0  0  0
   -7.4446   -5.7878  -22.7709 N   0  0  0  0  0  0  0  0  0  0  0  0
   -7.5150   -6.9194  -23.4736 C   0  0  0  0  0  0  0  0  0  0  0  0
   -7.5714   -6.8731  -24.8478 C   0  0  0  0  0  0  0  0  0  0  0  0
   -7.5555   -5.6703  -25.4973 N   0  0  0  0  0  0  0  0  0  0  0  0
 29 30  1  0  0  0  0
 30 31  1  0  0  0  0
 30 33  1  0  0  0  0
 31 32  2  0  0  0  0
 28 31  1  0  0  0  0
  1 28  1  0  0  0  0
  1  2  1  0  0  0  0
  2  3  1  0  0  0  0
  3  4  1  0  0  0  0
  3  9  1  0  0  0  0
  4  5  2  0  0  0  0
  4  6  1  0  0  0  0
  6 18  1  0  0  0  0
  6  7  1  0  0  0  0
 18 19  2  0  0  0  0
 19 20  1  0  0  0  0
 20 21  2  0  0  0  0
 21 22  1  0  0  0  0
 22 23  2  0  0  0  0
 23 24  1  0  0  0  0
 24 25  2  0  0  0  0
 25 26  1  0  0  0  0
 26 27  2  0  0  0  0
 18 27  1  0  0  0  0
 22 27  1  0  0  0  0
  7  8  1  0  0  0  0
  8 34  1  0  0  0  0
  3  8  1  0  0  0  0
 34 35  1  0  0  0  0
 35 37  1  0  0  0  0
 35 36  1  0  0  0  0
 37 38  2  0  0  0  0
 38 39  1  0  0  0  0
 39 40  2  0  0  0  0
 40 41  1  0  0  0  0
 41 42  2  0  0  0  0
 37 42  1  0  0  0  0
  9 10  2  0  0  0  0
 10 11  1  0  0  0  0
 11 12  1  0  0  0  0
 11 13  2  0  0  0  0
 13 14  1  0  0  0  0
 14 15  2  0  0  0  0
 15 16  1  0  0  0  0
  9 15  1  0  0  0  0
 16 17  2  0  0  0  0
  1 16  1  0  0  0  0
M  END
$$$$
Mol_93
  PyMOL2.5          3D                             0

 37 42  0  0  0  0  0  0  0  0999 V2000
  -11.3803   -1.7899  -23.5646 C   0  0  0  0  0  0  0  0  0  0  0  0
  -11.6080   -0.3321  -23.4966 C   0  0  0  0  0  0  0  0  0  0  0  0
  -10.3198    0.2779  -23.9020 N   0  0  0  0  0  0  0  0  0  0  0  0
   -9.4808   -0.7769  -24.3675 C   0  0  0  0  0  0  0  0  0  0  0  0
   -8.6197   -0.6527  -25.2653 O   0  0  0  0  0  0  0  0  0  0  0  0
   -9.8804   -1.9574  -23.5600 C   0  0  0  0  0  0  0  0  0  0  0  0
   -9.3027   -1.7072  -22.1780 C   0  0  0  0  0  0  0  0  0  0  0  0
   -7.8444   -1.8196  -22.2866 N   0  0  0  0  0  0  0  0  0  0  0  0
   -7.3693   -3.0614  -22.7994 C   0  0  0  0  0  0  0  0  0  0  0  0
   -6.2483   -3.4875  -22.4350 O   0  0  0  0  0  0  0  0  0  0  0  0
   -8.2427   -3.7627  -23.7331 C   0  0  0  0  0  0  0  0  0  0  0  0
   -7.7780   -4.9716  -24.2139 C   0  0  0  0  0  0  0  0  0  0  0  0
   -8.5125   -5.7383  -25.0940 C   0  0  0  0  0  0  0  0  0  0  0  0
   -9.7334   -5.2476  -25.4759 C   0  0  0  0  0  0  0  0  0  0  0  0
  -10.6833   -6.2005  -26.5903 Cl  0  0  0  0  0  0  0  0  0  0  0  0
  -10.2053   -4.0206  -24.9883 C   0  0  0  0  0  0  0  0  0  0  0  0
   -9.4921   -3.2461  -24.1154 C   0  0  0  0  0  0  0  0  0  0  0  0
  -10.0293    1.6743  -23.8282 C   0  0  0  0  0  0  0  0  0  0  0  0
   -8.7504    2.1793  -23.7651 C   0  0  0  0  0  0  0  0  0  0  0  0
   -8.5389    3.5036  -23.6984 N   0  0  0  0  0  0  0  0  0  0  0  0
   -9.5923    4.3444  -23.6933 C   0  0  0  0  0  0  0  0  0  0  0  0
  -10.8929    3.9081  -23.7539 C   0  0  0  0  0  0  0  0  0  0  0  0
  -11.9646    4.8014  -23.7469 C   0  0  0  0  0  0  0  0  0  0  0  0
  -13.2460    4.2824  -23.8106 C   0  0  0  0  0  0  0  0  0  0  0  0
  -13.4837    2.9132  -23.8801 C   0  0  0  0  0  0  0  0  0  0  0  0
  -12.3999    2.0412  -23.8858 C   0  0  0  0  0  0  0  0  0  0  0  0
  -11.1140    2.5323  -23.8232 C   0  0  0  0  0  0  0  0  0  0  0  0
  -12.0597   -2.5963  -22.5387 C   0  0  0  0  0  0  0  0  0  0  0  0
  -14.0458   -2.7548  -21.2423 C   0  0  0  0  0  0  0  0  0  0  0  0
  -13.3150   -2.2464  -22.2380 O   0  0  0  0  0  0  0  0  0  0  0  0
   -6.9461   -0.7611  -21.9028 C   0  0  0  0  0  0  0  0  0  0  0  0
   -6.4862   -0.9918  -20.4947 C   0  0  0  0  0  0  0  0  0  0  0  0
   -7.2450   -1.1607  -19.3582 C   0  0  0  0  0  0  0  0  0  0  0  0
   -6.3988   -1.3389  -18.3172 N   0  0  0  0  0  0  0  0  0  0  0  0
   -5.1503   -1.2917  -18.7339 N   0  0  0  0  0  0  0  0  0  0  0  0
   -5.1751   -1.0779  -20.0776 C   0  0  0  0  0  0  0  0  0  0  0  0
   -4.3459   -1.3927  -18.1754 H   0  0  0  0  0  0  0  0  0  0  0  0
 29 30  1  0  0  0  0
 28 30  1  0  0  0  0
  1 28  1  0  0  0  0
  1  2  1  0  0  0  0
  2  3  1  0  0  0  0
  3 18  1  0  0  0  0
  3  4  1  0  0  0  0
 18 19  2  0  0  0  0
 19 20  1  0  0  0  0
 20 21  2  0  0  0  0
 21 22  1  0  0  0  0
 22 23  2  0  0  0  0
 23 24  1  0  0  0  0
 24 25  2  0  0  0  0
 25 26  1  0  0  0  0
 26 27  2  0  0  0  0
 18 27  1  0  0  0  0
 22 27  1  0  0  0  0
  4  5  2  0  0  0  0
  4  6  1  0  0  0  0
  6  7  1  0  0  0  0
  1  6  1  0  0  0  0
  7  8  1  0  0  0  0
  8 31  1  0  0  0  0
  8  9  1  0  0  0  0
 31 32  1  0  0  0  0
 32 33  1  0  0  0  0
 33 34  2  0  0  0  0
 34 35  1  0  0  0  0
 35 36  1  0  0  0  0
 35 37  1  0  0  0  0
 32 36  2  0  0  0  0
  9 10  2  0  0  0  0
  9 11  1  0  0  0  0
 11 12  2  0  0  0  0
 12 13  1  0  0  0  0
 13 14  2  0  0  0  0
 14 15  1  0  0  0  0
 14 16  1  0  0  0  0
 16 17  2  0  0  0  0
 11 17  1  0  0  0  0
  6 17  1  0  0  0  0
M  END
$$$$
Mol_94
  PyMOL2.5          3D                             0

 36 41  0  0  0  0  0  0  0  0999 V2000
   -8.0916   -0.8457  -24.8331 N   0  0  0  0  0  0  0  0  0  0  0  0
   -8.3469   -2.0834  -25.5190 C   0  0  0  0  0  0  0  0  0  0  0  0
   -9.0633   -3.0440  -24.6340 C   0  0  0  0  0  0  0  0  0  0  0  0
   -8.1212   -3.5312  -23.5930 C   0  0  0  0  0  0  0  0  0  0  0  0
   -7.8677   -2.9677  -22.4989 O   0  0  0  0  0  0  0  0  0  0  0  0
   -7.5105   -4.7548  -23.9793 N   0  0  0  0  0  0  0  0  0  0  0  0
   -7.9984   -5.0008  -25.3355 C   0  0  0  0  0  0  0  0  0  0  0  0
   -9.3864   -4.3325  -25.3486 C   0  0  0  0  0  0  0  0  0  0  0  0
   -9.8297   -4.1430  -26.7646 C   0  0  0  0  0  0  0  0  0  0  0  0
  -10.2149   -2.3838  -23.9857 C   0  0  0  0  0  0  0  0  0  0  0  0
  -11.3285   -3.1057  -23.5267 C   0  0  0  0  0  0  0  0  0  0  0  0
  -12.3995   -2.4764  -22.9176 C   0  0  0  0  0  0  0  0  0  0  0  0
  -13.4745   -3.1974  -22.4778 F   0  0  0  0  0  0  0  0  0  0  0  0
  -12.4360   -1.1141  -22.7267 C   0  0  0  0  0  0  0  0  0  0  0  0
  -11.3520   -0.3918  -23.1707 C   0  0  0  0  0  0  0  0  0  0  0  0
  -10.2971   -1.0197  -23.7718 C   0  0  0  0  0  0  0  0  0  0  0  0
   -9.1855   -0.1934  -24.2131 C   0  0  0  0  0  0  0  0  0  0  0  0
   -9.1934    1.0524  -24.0532 O   0  0  0  0  0  0  0  0  0  0  0  0
   -6.6367   -5.6171  -23.3082 C   0  0  0  0  0  0  0  0  0  0  0  0
   -6.8717   -6.2008  -22.0827 C   0  0  0  0  0  0  0  0  0  0  0  0
   -6.0142   -7.0246  -21.4677 N   0  0  0  0  0  0  0  0  0  0  0  0
   -4.8393   -7.3486  -22.0107 C   0  0  0  0  0  0  0  0  0  0  0  0
   -4.5444   -6.7904  -23.2482 C   0  0  0  0  0  0  0  0  0  0  0  0
   -3.3106   -7.1477  -23.7894 C   0  0  0  0  0  0  0  0  0  0  0  0
   -2.9686   -6.6192  -25.0207 C   0  0  0  0  0  0  0  0  0  0  0  0
   -3.8168   -5.7591  -25.7072 C   0  0  0  0  0  0  0  0  0  0  0  0
   -5.0265   -5.4417  -25.1196 C   0  0  0  0  0  0  0  0  0  0  0  0
   -5.4095   -5.9409  -23.9004 C   0  0  0  0  0  0  0  0  0  0  0  0
   -6.7670   -0.3012  -24.8037 C   0  0  0  0  0  0  0  0  0  0  0  0
   -6.0356    0.7536  -22.5722 N   0  0  0  0  0  0  0  0  0  0  0  0
   -5.3173    0.3350  -21.5300 N   0  0  0  0  0  0  0  0  0  0  0  0
   -4.8979   -0.9243  -21.7231 C   0  0  0  0  0  0  0  0  0  0  0  0
   -5.3918   -1.2890  -22.9546 C   0  0  0  0  0  0  0  0  0  0  0  0
   -6.1181   -0.2120  -23.4915 C   0  0  0  0  0  0  0  0  0  0  0  0
   -5.6037    3.0531  -22.0323 C   0  0  0  0  0  0  0  0  0  0  0  0
   -6.6043    2.0733  -22.6386 C   0  0  0  0  0  0  0  0  0  0  0  0
 35 36  1  0  0  0  0
 30 36  1  0  0  0  0
 30 31  1  0  0  0  0
 31 32  2  0  0  0  0
 32 33  1  0  0  0  0
 33 34  2  0  0  0  0
 29 34  1  0  0  0  0
 30 34  1  0  0  0  0
  1 29  1  0  0  0  0
  1  2  1  0  0  0  0
  2  3  1  0  0  0  0
  3  4  1  0  0  0  0
  3 10  1  0  0  0  0
  4  5  2  0  0  0  0
  4  6  1  0  0  0  0
  6 19  1  0  0  0  0
  6  7  1  0  0  0  0
 19 20  2  0  0  0  0
 20 21  1  0  0  0  0
 21 22  2  0  0  0  0
 22 23  1  0  0  0  0
 23 24  2  0  0  0  0
 24 25  1  0  0  0  0
 25 26  2  0  0  0  0
 26 27  1  0  0  0  0
 27 28  2  0  0  0  0
 19 28  1  0  0  0  0
 23 28  1  0  0  0  0
  7  8  1  0  0  0  0
  8  9  1  0  0  0  0
  3  8  1  0  0  0  0
 10 11  2  0  0  0  0
 11 12  1  0  0  0  0
 12 13  1  0  0  0  0
 12 14  2  0  0  0  0
 14 15  1  0  0  0  0
 15 16  2  0  0  0  0
 16 17  1  0  0  0  0
 10 16  1  0  0  0  0
 17 18  2  0  0  0  0
  1 17  1  0  0  0  0
M  END
$$$$
Mol_95
  PyMOL2.5          3D                             0

 33 34  0  0  0  0  0  0  0  0999 V2000
  -10.1433   -1.4873  -22.9039 C   0  0  0  0  0  0  0  0  0  0  0  0
  -11.1941   -2.3455  -22.5554 C   0  0  0  0  0  0  0  0  0  0  0  0
  -12.5106   -1.8838  -22.6240 C   0  0  0  0  0  0  0  0  0  0  0  0
  -13.8508   -2.9268  -22.1965 Cl  0  0  0  0  0  0  0  0  0  0  0  0
  -12.8170   -0.6008  -23.0264 C   0  0  0  0  0  0  0  0  0  0  0  0
  -11.7783    0.2484  -23.3711 C   0  0  0  0  0  0  0  0  0  0  0  0
  -10.4733   -0.1937  -23.3083 C   0  0  0  0  0  0  0  0  0  0  0  0
  -12.0389    1.6184  -23.8065 C   0  0  0  0  0  0  0  0  0  0  0  0
  -13.3502    2.0871  -23.7344 C   0  0  0  0  0  0  0  0  0  0  0  0
  -13.6955    3.3670  -24.1224 C   0  0  0  0  0  0  0  0  0  0  0  0
  -12.7139    4.2122  -24.5973 C   0  0  0  0  0  0  0  0  0  0  0  0
  -11.4054    3.7528  -24.6721 C   0  0  0  0  0  0  0  0  0  0  0  0
  -11.0632    2.4606  -24.2792 C   0  0  0  0  0  0  0  0  0  0  0  0
  -13.0512    5.8520  -25.1146 S   0  0  0  0  0  0  0  0  0  0  0  0
  -14.0934    6.6476  -23.9682 N   0  0  0  0  0  0  0  0  0  0  0  0
  -13.7254    5.7889  -26.4460 O   0  0  0  0  0  0  0  0  0  0  0  0
  -11.7871    6.6573  -25.2073 O   0  0  0  0  0  0  0  0  0  0  0  0
  -14.9647    6.1246  -23.8809 H   0  0  0  0  0  0  0  0  0  0  0  0
  -14.2956    7.5935  -24.2920 H   0  0  0  0  0  0  0  0  0  0  0  0
   -8.7335   -1.9344  -22.8493 C   0  0  0  0  0  0  0  0  0  0  0  0
   -8.5587   -3.4059  -22.9300 C   0  0  0  0  0  0  0  0  0  0  0  0
   -7.0585   -0.3608  -21.8376 C   0  0  0  0  0  0  0  0  0  0  0  0
   -6.8429    0.1510  -22.9817 O   0  0  0  0  0  0  0  0  0  0  0  0
   -8.0118   -1.4298  -21.6969 N   0  0  0  0  0  0  0  0  0  0  0  0
   -8.1758   -1.8226  -20.8092 H   0  0  0  0  0  0  0  0  0  0  0  0
   -6.3180    0.1562  -20.6580 C   0  0  0  0  0  0  0  0  0  0  0  0
   -5.3125   -0.6755  -20.2367 O   0  0  0  0  0  0  0  0  0  0  0  0
   -5.8082   -1.5090  -18.8677 S   0  0  0  0  0  0  0  0  0  0  0  0
   -5.2009   -0.8445  -17.6673 O   0  0  0  0  0  0  0  0  0  0  0  0
   -7.3007   -1.4798  -18.7118 O   0  0  0  0  0  0  0  0  0  0  0  0
   -5.3222   -3.6809  -20.2693 C   0  0  0  0  0  0  0  0  0  0  0  0
   -5.2515   -3.1555  -18.9285 N   0  0  0  0  0  0  0  0  0  0  0  0
   -4.2840   -3.1917  -18.6076 H   0  0  0  0  0  0  0  0  0  0  0  0
 31 32  1  0  0  0  0
 28 32  1  0  0  0  0
 32 33  1  0  0  0  0
 28 29  2  0  0  0  0
 28 30  2  0  0  0  0
 27 28  1  0  0  0  0
 26 27  1  0  0  0  0
 22 26  1  0  0  0  0
 22 23  2  0  0  0  0
 22 24  1  0  0  0  0
 20 24  1  0  0  0  0
 24 25  1  0  0  0  0
 20 21  1  0  0  0  0
  1 20  1  0  0  0  0
  1  2  2  0  0  0  0
  2  3  1  0  0  0  0
  3  4  1  0  0  0  0
  3  5  2  0  0  0  0
  5  6  1  0  0  0  0
  6  8  1  0  0  0  0
  6  7  2  0  0  0  0
  8  9  2  0  0  0  0
  9 10  1  0  0  0  0
 10 11  2  0  0  0  0
 11 14  1  0  0  0  0
 11 12  1  0  0  0  0
 14 15  1  0  0  0  0
 14 16  2  0  0  0  0
 14 17  2  0  0  0  0
 15 18  1  0  0  0  0
 15 19  1  0  0  0  0
 12 13  2  0  0  0  0
  8 13  1  0  0  0  0
  1  7  1  0  0  0  0
M  END
$$$$
Mol_96
  PyMOL2.5          3D                             0

 42 47  0  0  0  0  0  0  0  0999 V2000
   -9.3562    2.3109  -24.7744 N   0  0  0  0  0  0  0  0  0  0  0  0
   -8.7667    1.0394  -25.1245 C   0  0  0  0  0  0  0  0  0  0  0  0
   -8.9735    0.0706  -23.9818 C   0  0  0  0  0  0  0  0  0  0  0  0
   -8.3282    0.6569  -22.7415 C   0  0  0  0  0  0  0  0  0  0  0  0
   -8.6719    1.7365  -22.1581 O   0  0  0  0  0  0  0  0  0  0  0  0
   -7.2629   -0.2018  -22.3271 N   0  0  0  0  0  0  0  0  0  0  0  0
   -6.8228   -0.8429  -23.5750 C   0  0  0  0  0  0  0  0  0  0  0  0
   -8.2143   -1.1891  -24.1351 C   0  0  0  0  0  0  0  0  0  0  0  0
  -10.4028   -0.0376  -23.7011 C   0  0  0  0  0  0  0  0  0  0  0  0
  -11.0129   -1.1758  -23.1889 C   0  0  0  0  0  0  0  0  0  0  0  0
  -12.3783   -1.2223  -22.9195 C   0  0  0  0  0  0  0  0  0  0  0  0
  -13.1039   -2.7012  -22.2667 Cl  0  0  0  0  0  0  0  0  0  0  0  0
  -13.2019   -0.1407  -23.1464 C   0  0  0  0  0  0  0  0  0  0  0  0
  -12.6079    0.9938  -23.6547 C   0  0  0  0  0  0  0  0  0  0  0  0
  -11.2682    1.0388  -23.9192 C   0  0  0  0  0  0  0  0  0  0  0  0
  -10.7559    2.3059  -24.4854 C   0  0  0  0  0  0  0  0  0  0  0  0
  -11.4990    3.2964  -24.6931 O   0  0  0  0  0  0  0  0  0  0  0  0
   -6.7627   -0.3767  -21.0132 C   0  0  0  0  0  0  0  0  0  0  0  0
   -7.4427   -1.2507  -20.1534 C   0  0  0  0  0  0  0  0  0  0  0  0
   -6.9893   -1.4352  -18.8971 N   0  0  0  0  0  0  0  0  0  0  0  0
   -5.8764   -0.7783  -18.4604 C   0  0  0  0  0  0  0  0  0  0  0  0
   -5.1871    0.0911  -19.2931 C   0  0  0  0  0  0  0  0  0  0  0  0
   -4.0484    0.7465  -18.8153 C   0  0  0  0  0  0  0  0  0  0  0  0
   -3.3995    1.6028  -19.6990 C   0  0  0  0  0  0  0  0  0  0  0  0
   -3.8502    1.8053  -20.9938 C   0  0  0  0  0  0  0  0  0  0  0  0
   -4.9580    1.1618  -21.4443 C   0  0  0  0  0  0  0  0  0  0  0  0
   -5.6413    0.2910  -20.5877 C   0  0  0  0  0  0  0  0  0  0  0  0
   -8.6268    3.5584  -24.7100 C   0  0  0  0  0  0  0  0  0  0  0  0
   -4.8333    2.8561  -24.6785 C   0  0  0  0  0  0  0  0  0  0  0  0
   -6.2225    3.0243  -24.2268 N   0  0  0  0  0  0  0  0  0  0  0  0
   -7.2163    3.3864  -25.1814 C   0  0  0  0  0  0  0  0  0  0  0  0
   -6.9224    3.5624  -26.4062 O   0  0  0  0  0  0  0  0  0  0  0  0
   -6.4617    2.8892  -23.2814 H   0  0  0  0  0  0  0  0  0  0  0  0
   -8.1378   -1.7528  -25.5212 C   0  0  0  0  0  0  0  0  0  0  0  0
   -8.8041   -3.0263  -25.6727 N   0  0  0  0  0  0  0  0  0  0  0  0
   -9.7301   -3.0480  -26.0063 H   0  0  0  0  0  0  0  0  0  0  0  0
   -8.1531   -4.2481  -25.3510 C   0  0  0  0  0  0  0  0  0  0  0  0
   -7.1762   -4.7326  -26.1595 C   0  0  0  0  0  0  0  0  0  0  0  0
   -6.4915   -5.9218  -25.9078 C   0  0  0  0  0  0  0  0  0  0  0  0
   -6.8485   -6.6046  -24.7842 N   0  0  0  0  0  0  0  0  0  0  0  0
   -7.8145   -6.1316  -23.9787 C   0  0  0  0  0  0  0  0  0  0  0  0
   -8.4656   -4.9708  -24.2469 N   0  0  0  0  0  0  0  0  0  0  0  0
 29 30  1  0  0  0  0
 30 31  1  0  0  0  0
 30 33  1  0  0  0  0
 31 32  2  0  0  0  0
 28 31  1  0  0  0  0
  1 28  1  0  0  0  0
  1  2  1  0  0  0  0
  2  3  1  0  0  0  0
  3  4  1  0  0  0  0
  3  9  1  0  0  0  0
  4  5  2  0  0  0  0
  4  6  1  0  0  0  0
  6 18  1  0  0  0  0
  6  7  1  0  0  0  0
 18 19  2  0  0  0  0
 19 20  1  0  0  0  0
 20 21  2  0  0  0  0
 21 22  1  0  0  0  0
 22 23  2  0  0  0  0
 23 24  1  0  0  0  0
 24 25  2  0  0  0  0
 25 26  1  0  0  0  0
 26 27  2  0  0  0  0
 18 27  1  0  0  0  0
 22 27  1  0  0  0  0
  7  8  1  0  0  0  0
  8 34  1  0  0  0  0
  3  8  1  0  0  0  0
 34 35  1  0  0  0  0
 35 37  1  0  0  0  0
 35 36  1  0  0  0  0
 37 38  2  0  0  0  0
 38 39  1  0  0  0  0
 39 40  2  0  0  0  0
 40 41  1  0  0  0  0
 41 42  2  0  0  0  0
 37 42  1  0  0  0  0
  9 10  2  0  0  0  0
 10 11  1  0  0  0  0
 11 12  1  0  0  0  0
 11 13  2  0  0  0  0
 13 14  1  0  0  0  0
 14 15  2  0  0  0  0
 15 16  1  0  0  0  0
  9 15  1  0  0  0  0
 16 17  2  0  0  0  0
  1 16  1  0  0  0  0
M  END
$$$$
Mol_97
  PyMOL2.5          3D                             0

 38 42  0  0  0  0  0  0  0  0999 V2000
   -8.7737    1.3128  -24.3767 N   0  0  0  0  0  0  0  0  0  0  0  0
   -8.2684   -0.0491  -24.3678 C   0  0  0  0  0  0  0  0  0  0  0  0
   -8.9031   -0.7730  -23.2078 C   0  0  0  0  0  0  0  0  0  0  0  0
   -8.3465   -0.1453  -21.9785 C   0  0  0  0  0  0  0  0  0  0  0  0
   -8.8396    0.8587  -21.3700 O   0  0  0  0  0  0  0  0  0  0  0  0
   -7.1789   -0.8851  -21.6375 N   0  0  0  0  0  0  0  0  0  0  0  0
   -6.9686   -1.9173  -22.6373 C   0  0  0  0  0  0  0  0  0  0  0  0
   -8.4170   -2.1867  -23.0316 C   0  0  0  0  0  0  0  0  0  0  0  0
  -10.3739   -0.6729  -23.2653 C   0  0  0  0  0  0  0  0  0  0  0  0
  -11.2356   -1.6156  -22.7404 C   0  0  0  0  0  0  0  0  0  0  0  0
  -12.6176   -1.4879  -22.8103 C   0  0  0  0  0  0  0  0  0  0  0  0
  -13.6766   -2.7245  -22.1219 Cl  0  0  0  0  0  0  0  0  0  0  0  0
  -13.2007   -0.3957  -23.4171 C   0  0  0  0  0  0  0  0  0  0  0  0
  -12.3567    0.5542  -23.9460 C   0  0  0  0  0  0  0  0  0  0  0  0
  -11.0037    0.4230  -23.8741 C   0  0  0  0  0  0  0  0  0  0  0  0
  -10.1844    1.4780  -24.4643 C   0  0  0  0  0  0  0  0  0  0  0  0
  -10.6667    2.4943  -25.0285 O   0  0  0  0  0  0  0  0  0  0  0  0
   -6.3595   -0.6399  -20.4943 C   0  0  0  0  0  0  0  0  0  0  0  0
   -6.6700   -1.4119  -19.3676 C   0  0  0  0  0  0  0  0  0  0  0  0
   -5.9588   -1.2526  -18.2529 N   0  0  0  0  0  0  0  0  0  0  0  0
   -4.9486   -0.3620  -18.1951 C   0  0  0  0  0  0  0  0  0  0  0  0
   -4.6314    0.3971  -19.2786 C   0  0  0  0  0  0  0  0  0  0  0  0
   -3.5944    1.3061  -19.2084 C   0  0  0  0  0  0  0  0  0  0  0  0
   -3.2942    2.0668  -20.3318 C   0  0  0  0  0  0  0  0  0  0  0  0
   -4.0276    1.9154  -21.5107 C   0  0  0  0  0  0  0  0  0  0  0  0
   -5.0638    1.0082  -21.5830 C   0  0  0  0  0  0  0  0  0  0  0  0
   -5.3408    0.2714  -20.4667 C   0  0  0  0  0  0  0  0  0  0  0  0
   -7.9056    2.4777  -24.3035 C   0  0  0  0  0  0  0  0  0  0  0  0
   -6.2093    2.6863  -27.7635 C   0  0  0  0  0  0  0  0  0  0  0  0
   -7.1819    2.6842  -26.6713 N   0  0  0  0  0  0  0  0  0  0  0  0
   -6.8255    2.4538  -25.3234 C   0  0  0  0  0  0  0  0  0  0  0  0
   -5.6241    2.2363  -25.0137 O   0  0  0  0  0  0  0  0  0  0  0  0
   -8.1284    2.8511  -26.8849 H   0  0  0  0  0  0  0  0  0  0  0  0
   -8.5553   -3.0548  -24.2095 C   0  0  0  0  0  0  0  0  0  0  0  0
   -8.8677   -4.3278  -23.8339 O   0  0  0  0  0  0  0  0  0  0  0  0
   -8.0136   -5.3346  -24.1271 C   0  0  0  0  0  0  0  0  0  0  0  0
   -7.0259   -5.0057  -25.2314 C   0  0  0  0  0  0  0  0  0  0  0  0
   -7.2832   -5.7636  -22.8734 C   0  0  0  0  0  0  0  0  0  0  0  0
 29 30  1  0  0  0  0
 30 31  1  0  0  0  0
 30 33  1  0  0  0  0
 31 32  2  0  0  0  0
 28 31  1  0  0  0  0
  1 28  1  0  0  0  0
  1  2  1  0  0  0  0
  2  3  1  0  0  0  0
  3  4  1  0  0  0  0
  3  9  1  0  0  0  0
  4  5  2  0  0  0  0
  4  6  1  0  0  0  0
  6 18  1  0  0  0  0
  6  7  1  0  0  0  0
 18 19  2  0  0  0  0
 19 20  1  0  0  0  0
 20 21  2  0  0  0  0
 21 22  1  0  0  0  0
 22 23  2  0  0  0  0
 23 24  1  0  0  0  0
 24 25  2  0  0  0  0
 25 26  1  0  0  0  0
 26 27  2  0  0  0  0
 18 27  1  0  0  0  0
 22 27  1  0  0  0  0
  7  8  1  0  0  0  0
  8 34  1  0  0  0  0
  3  8  1  0  0  0  0
 34 35  1  0  0  0  0
 35 36  1  0  0  0  0
 36 37  1  0  0  0  0
 36 38  1  0  0  0  0
  9 10  2  0  0  0  0
 10 11  1  0  0  0  0
 11 12  1  0  0  0  0
 11 13  2  0  0  0  0
 13 14  1  0  0  0  0
 14 15  2  0  0  0  0
 15 16  1  0  0  0  0
  9 15  1  0  0  0  0
 16 17  2  0  0  0  0
  1 16  1  0  0  0  0
M  END
$$$$
Mol_98
  PyMOL2.5          3D                             0

 24 27  0  0  0  0  0  0  0  0999 V2000
  -12.0558   -2.6866  -22.8462 C   0  0  0  0  0  0  0  0  0  0  0  0
  -10.6551   -2.3199  -23.2817 C   0  0  0  0  0  0  0  0  0  0  0  0
  -10.3794   -2.8420  -24.6714 C   0  0  0  0  0  0  0  0  0  0  0  0
   -9.0434   -2.8083  -24.9826 O   0  0  0  0  0  0  0  0  0  0  0  0
   -8.3108   -1.9502  -24.1774 C   0  0  0  0  0  0  0  0  0  0  0  0
   -8.2814   -2.3908  -22.7400 C   0  0  0  0  0  0  0  0  0  0  0  0
   -9.6316   -2.9315  -22.3485 C   0  0  0  0  0  0  0  0  0  0  0  0
   -7.2232   -3.3548  -22.5166 N   0  0  0  0  0  0  0  0  0  0  0  0
   -6.3615   -2.8981  -21.4800 C   0  0  0  0  0  0  0  0  0  0  0  0
   -5.3898   -3.5550  -21.0094 O   0  0  0  0  0  0  0  0  0  0  0  0
   -6.7715   -1.5912  -21.0651 N   0  0  0  0  0  0  0  0  0  0  0  0
   -7.8899   -1.2698  -21.8657 C   0  0  0  0  0  0  0  0  0  0  0  0
   -8.4703   -0.1523  -21.8234 O   0  0  0  0  0  0  0  0  0  0  0  0
   -7.1159   -4.2006  -23.0090 H   0  0  0  0  0  0  0  0  0  0  0  0
   -6.1107   -0.8699  -20.0490 C   0  0  0  0  0  0  0  0  0  0  0  0
   -6.4612   -0.8496  -18.7341 C   0  0  0  0  0  0  0  0  0  0  0  0
   -5.7614   -0.1228  -17.8292 N   0  0  0  0  0  0  0  0  0  0  0  0
   -4.6857    0.6146  -18.1857 C   0  0  0  0  0  0  0  0  0  0  0  0
   -4.2875    0.6283  -19.5105 C   0  0  0  0  0  0  0  0  0  0  0  0
   -3.1828    1.3736  -19.9312 C   0  0  0  0  0  0  0  0  0  0  0  0
   -2.7932    1.3771  -21.2727 C   0  0  0  0  0  0  0  0  0  0  0  0
   -3.5205    0.6298  -22.1763 C   0  0  0  0  0  0  0  0  0  0  0  0
   -4.6052   -0.1024  -21.7649 C   0  0  0  0  0  0  0  0  0  0  0  0
   -5.0030   -0.1153  -20.4380 C   0  0  0  0  0  0  0  0  0  0  0  0
  1  2  1  0  0  0  0
  2  3  1  0  0  0  0
  3  4  1  0  0  0  0
  4  5  1  0  0  0  0
  5  6  1  0  0  0  0
  6  7  1  0  0  0  0
  6  8  1  0  0  0  0
  6 12  1  0  0  0  0
  2  7  1  0  0  0  0
  8  9  1  0  0  0  0
  8 14  1  0  0  0  0
  9 10  2  0  0  0  0
  9 11  1  0  0  0  0
 11 15  1  0  0  0  0
 11 12  1  0  0  0  0
 15 16  2  0  0  0  0
 16 17  1  0  0  0  0
 17 18  2  0  0  0  0
 18 19  1  0  0  0  0
 19 20  2  0  0  0  0
 20 21  1  0  0  0  0
 21 22  2  0  0  0  0
 22 23  1  0  0  0  0
 23 24  2  0  0  0  0
 15 24  1  0  0  0  0
 19 24  1  0  0  0  0
 12 13  2  0  0  0  0
M  END
$$$$
