
     RDKit          3D

 55 60  0  0  0  0  0  0  0  0999 V2000
    8.8512   -2.7968   23.6516 C   0  0  0  0  0  0  0  0  0  0  0  0
    8.9129   -1.7983   22.5029 C   0  0  1  0  0  0  0  0  0  0  0  0
    7.5697   -1.5480   21.8078 C   0  0  0  0  0  0  0  0  0  0  0  0
    7.7733   -0.2635   21.1617 N   0  0  0  0  0  0  0  0  0  0  0  0
    6.9372    0.2601   20.1397 C   0  0  0  0  0  0  0  0  0  0  0  0
    7.2100   -0.0159   18.8221 C   0  0  0  0  0  0  0  0  0  0  0  0
    6.4866    0.4450   17.7720 N   0  0  0  0  0  0  0  0  0  0  0  0
    5.4474    1.2059   18.0375 C   0  0  0  0  0  0  0  0  0  0  0  0
    5.0332    1.5526   19.3572 C   0  0  0  0  0  0  0  0  0  0  0  0
    3.9069    2.3872   19.6106 C   0  0  0  0  0  0  0  0  0  0  0  0
    3.5468    2.6930   20.8958 C   0  0  0  0  0  0  0  0  0  0  0  0
    4.2797    2.1756   21.9854 C   0  0  0  0  0  0  0  0  0  0  0  0
    5.3746    1.3738   21.7691 C   0  0  0  0  0  0  0  0  0  0  0  0
    5.7864    1.0542   20.4464 C   0  0  0  0  0  0  0  0  0  0  0  0
    8.8185    0.4626   21.7017 C   0  0  0  0  0  0  0  0  0  0  0  0
    9.1638    1.5530   21.3164 O   0  0  0  0  0  0  0  0  0  0  0  0
    9.4263   -0.3765   22.8574 C   0  0  1  0  0  0  0  0  0  0  0  0
    8.8453    0.1207   24.2086 C   0  0  0  0  0  0  0  0  0  0  0  0
    9.2540    1.4792   24.5014 N   0  0  0  0  0  0  0  0  0  0  0  0
    8.3822    2.3123   25.3033 C   0  0  0  0  0  0  0  0  0  0  0  0
    7.8059    3.4569   24.5406 C   0  0  0  0  0  0  0  0  0  0  0  0
    7.5055    4.7335   25.0083 C   0  0  0  0  0  0  0  0  0  0  0  0
    6.9381    5.4387   24.0343 N   0  0  0  0  0  0  0  0  0  0  0  0
    6.9207    4.5796   23.0414 N   0  0  0  0  0  0  0  0  0  0  0  0
    7.4171    3.3769   23.2675 N   0  0  0  0  0  0  0  0  0  0  0  0
   10.5252    1.9268   24.2657 C   0  0  0  0  0  0  0  0  0  0  0  0
   10.8985    3.0339   24.6282 O   0  0  0  0  0  0  0  0  0  0  0  0
   11.4361    0.9619   23.5568 C   0  0  0  0  0  0  0  0  0  0  0  0
   12.8053    1.2414   23.5203 C   0  0  0  0  0  0  0  0  0  0  0  0
   13.6823    0.3942   22.8709 C   0  0  0  0  0  0  0  0  0  0  0  0
   13.1644   -0.7467   22.2701 C   0  0  0  0  0  0  0  0  0  0  0  0
   13.9999   -1.5791   21.6263 F   0  0  0  0  0  0  0  0  0  0  0  0
   11.8192   -1.0560   22.2901 C   0  0  0  0  0  0  0  0  0  0  0  0
   10.9274   -0.1891   22.9300 C   0  0  0  0  0  0  0  0  0  0  0  0
    8.5956   -3.7983   23.2916 H   0  0  0  0  0  0  0  0  0  0  0  0
    8.0948   -2.5073   24.3883 H   0  0  0  0  0  0  0  0  0  0  0  0
    9.8097   -2.8635   24.1787 H   0  0  0  0  0  0  0  0  0  0  0  0
    9.5646   -2.2140   21.7287 H   0  0  0  0  0  0  0  0  0  0  0  0
    7.3391   -2.3188   21.0680 H   0  0  0  0  0  0  0  0  0  0  0  0
    6.7491   -1.5280   22.5466 H   0  0  0  0  0  0  0  0  0  0  0  0
    8.0706   -0.6316   18.5698 H   0  0  0  0  0  0  0  0  0  0  0  0
    4.8702    1.5855   17.1927 H   0  0  0  0  0  0  0  0  0  0  0  0
    3.3431    2.7860   18.7709 H   0  0  0  0  0  0  0  0  0  0  0  0
    2.6887    3.3317   21.0884 H   0  0  0  0  0  0  0  0  0  0  0  0
    3.9923    2.4287   23.0026 H   0  0  0  0  0  0  0  0  0  0  0  0
    5.9496    1.0019   22.6127 H   0  0  0  0  0  0  0  0  0  0  0  0
    7.7485    0.0963   24.1649 H   0  0  0  0  0  0  0  0  0  0  0  0
    9.1749   -0.5398   25.0251 H   0  0  0  0  0  0  0  0  0  0  0  0
    7.5678    1.6879   25.6905 H   0  0  0  0  0  0  0  0  0  0  0  0
    8.9292    2.6807   26.1747 H   0  0  0  0  0  0  0  0  0  0  0  0
    7.6711    5.1246   25.9925 H   0  0  0  0  0  0  0  0  0  0  0  0
    6.5395    4.8269   22.1508 H   0  0  0  0  0  0  0  0  0  0  0  0
   13.1796    2.1338   24.0078 H   0  0  0  0  0  0  0  0  0  0  0  0
   14.7485    0.6006   22.8136 H   0  0  0  0  0  0  0  0  0  0  0  0
   11.4944   -1.9689   21.8037 H   0  0  0  0  0  0  0  0  0  0  0  0
  1  2  1  0
  2  3  1  0
  3  4  1  0
  4  5  1  0
  5  6  2  0
  6  7  1  0
  7  8  2  0
  8  9  1  0
  9 10  2  0
 10 11  1  0
 11 12  2  0
 12 13  1  0
 13 14  2  0
  4 15  1  0
 15 16  2  0
 15 17  1  0
 17 18  1  1
 18 19  1  0
 19 20  1  0
 20 21  1  0
 21 22  1  0
 22 23  2  0
 23 24  1  0
 24 25  1  0
 19 26  1  0
 26 27  2  0
 26 28  1  0
 28 29  2  0
 29 30  1  0
 30 31  2  0
 31 32  1  0
 31 33  1  0
 33 34  2  0
 17  2  1  0
 25 21  2  0
 34 28  1  0
 14  5  1  0
 34 17  1  0
 14  9  1  0
  1 35  1  0
  1 36  1  0
  1 37  1  0
  2 38  1  6
  3 39  1  0
  3 40  1  0
  6 41  1  0
  8 42  1  0
 10 43  1  0
 11 44  1  0
 12 45  1  0
 13 46  1  0
 18 47  1  0
 18 48  1  0
 20 49  1  0
 20 50  1  0
 22 51  1  0
 24 52  1  0
 29 53  1  0
 30 54  1  0
 33 55  1  0
M  END
$$$$
