
     RDKit          3D

 67 71  0  0  0  0  0  0  0  0999 V2000
    6.4573    3.5218   25.6821 O   0  0  0  0  0  0  0  0  0  0  0  0
    6.9273    2.6826   24.9434 C   0  0  0  0  0  0  0  0  0  0  0  0
    7.7100    1.4615   25.4717 C   0  0  0  0  0  0  0  0  0  0  0  0
    8.6547    0.9312   24.4370 N   0  0  1  0  0  4  0  0  0  0  0  0
   10.1007    1.2679   24.6919 C   0  0  0  0  0  0  0  0  0  0  0  0
   11.0674    0.5331   23.7937 C   0  0  0  0  0  0  0  0  0  0  0  0
   12.4079    0.9209   23.7965 C   0  0  0  0  0  0  0  0  0  0  0  0
   13.3579    0.2341   23.0519 C   0  0  0  0  0  0  0  0  0  0  0  0
   12.9492   -0.8570   22.2884 C   0  0  0  0  0  0  0  0  0  0  0  0
   14.1247   -1.7781   21.3889 Cl  0  0  0  0  0  0  0  0  0  0  0  0
   11.6110   -1.2200   22.2320 C   0  0  0  0  0  0  0  0  0  0  0  0
   10.6603   -0.5127   22.9663 C   0  0  0  0  0  0  0  0  0  0  0  0
    9.1952   -0.8346   22.7969 C   0  0  2  0  0  0  0  0  0  0  0  0
    8.5759   -0.0401   21.6368 C   0  0  0  0  0  0  0  0  0  0  0  0
    8.9045    1.0981   21.3519 O   0  0  0  0  0  0  0  0  0  0  0  0
    7.5334   -0.6686   20.9901 N   0  0  0  0  0  0  0  0  0  0  0  0
    6.7722   -0.0198   19.9737 C   0  0  0  0  0  0  0  0  0  0  0  0
    7.1378   -0.1334   18.6582 C   0  0  0  0  0  0  0  0  0  0  0  0
    6.4874    0.4533   17.6235 N   0  0  0  0  0  0  0  0  0  0  0  0
    5.4425    1.1972   17.9034 C   0  0  0  0  0  0  0  0  0  0  0  0
    4.9380    1.3919   19.2236 C   0  0  0  0  0  0  0  0  0  0  0  0
    3.8068    2.2096   19.4998 C   0  0  0  0  0  0  0  0  0  0  0  0
    3.3332    2.3331   20.7813 C   0  0  0  0  0  0  0  0  0  0  0  0
    3.9498    1.6236   21.8355 C   0  0  0  0  0  0  0  0  0  0  0  0
    5.0340    0.8135   21.5833 C   0  0  0  0  0  0  0  0  0  0  0  0
    5.5913    0.7235   20.2830 C   0  0  0  0  0  0  0  0  0  0  0  0
    8.4323   -0.5114   24.0826 C   0  0  0  0  0  0  0  0  0  0  0  0
    6.8895    2.7377   23.5681 N   0  0  0  0  0  0  0  0  0  0  0  0
    7.1851    3.9216   22.7803 C   0  0  0  0  0  0  0  0  0  0  0  0
    8.5351    4.5760   23.1571 C   0  0  0  0  0  0  0  0  0  0  0  0
    8.4794    5.4197   24.4139 C   0  0  0  0  0  0  0  0  0  0  0  0
    9.1680    5.0960   25.5878 C   0  0  0  0  0  0  0  0  0  0  0  0
    9.0551    5.9079   26.7144 C   0  0  0  0  0  0  0  0  0  0  0  0
    8.2682    7.0551   26.6918 C   0  0  0  0  0  0  0  0  0  0  0  0
    8.1693    7.9402   27.8954 C   0  0  0  0  0  0  0  0  0  0  0  0
    6.8641    8.0987   28.2646 F   0  0  0  0  0  0  0  0  0  0  0  0
    8.6455    9.1867   27.6032 F   0  0  0  0  0  0  0  0  0  0  0  0
    7.5827    7.3838   25.5257 C   0  0  0  0  0  0  0  0  0  0  0  0
    7.6850    6.5669   24.4086 C   0  0  0  0  0  0  0  0  0  0  0  0
    7.0329    0.6689   25.7989 H   0  0  0  0  0  0  0  0  0  0  0  0
    8.2680    1.7797   26.3523 H   0  0  0  0  0  0  0  0  0  0  0  0
    8.4389    1.4783   23.5821 H   0  0  0  0  0  0  0  0  0  0  0  0
   10.2403    2.3455   24.5445 H   0  0  0  0  0  0  0  0  0  0  0  0
   10.3455    1.0969   25.7428 H   0  0  0  0  0  0  0  0  0  0  0  0
   12.7131    1.7796   24.3927 H   0  0  0  0  0  0  0  0  0  0  0  0
   14.4058    0.5214   23.0725 H   0  0  0  0  0  0  0  0  0  0  0  0
   11.2933   -2.0578   21.6175 H   0  0  0  0  0  0  0  0  0  0  0  0
    9.0705   -1.8932   22.5510 H   0  0  0  0  0  0  0  0  0  0  0  0
    7.1722   -1.5415   21.3504 H   0  0  0  0  0  0  0  0  0  0  0  0
    7.9887   -0.7598   18.3992 H   0  0  0  0  0  0  0  0  0  0  0  0
    4.9423    1.6733   17.0589 H   0  0  0  0  0  0  0  0  0  0  0  0
    3.3369    2.7258   18.6667 H   0  0  0  0  0  0  0  0  0  0  0  0
    2.4810    2.9748   20.9946 H   0  0  0  0  0  0  0  0  0  0  0  0
    3.5983    1.7411   22.8582 H   0  0  0  0  0  0  0  0  0  0  0  0
    5.4949    0.2519   22.3867 H   0  0  0  0  0  0  0  0  0  0  0  0
    7.3617   -0.6817   23.9500 H   0  0  0  0  0  0  0  0  0  0  0  0
    8.7627   -1.1350   24.9135 H   0  0  0  0  0  0  0  0  0  0  0  0
    6.7822    1.8999   23.0265 H   0  0  0  0  0  0  0  0  0  0  0  0
    6.3447    4.6110   22.8792 H   0  0  0  0  0  0  0  0  0  0  0  0
    7.2295    3.5707   21.7454 H   0  0  0  0  0  0  0  0  0  0  0  0
    8.8701    5.1971   22.3137 H   0  0  0  0  0  0  0  0  0  0  0  0
    9.2850    3.7803   23.2676 H   0  0  0  0  0  0  0  0  0  0  0  0
    9.7642    4.1837   25.6438 H   0  0  0  0  0  0  0  0  0  0  0  0
    9.5826    5.6499   27.6313 H   0  0  0  0  0  0  0  0  0  0  0  0
    8.7272    7.5497   28.7553 H   0  0  0  0  0  0  0  0  0  0  0  0
    6.9766    8.2834   25.4934 H   0  0  0  0  0  0  0  0  0  0  0  0
    7.1404    6.8228   23.5012 H   0  0  0  0  0  0  0  0  0  0  0  0
  1  2  2  0
  2  3  1  0
  3  4  1  0
  4  5  1  0
  5  6  1  0
  6  7  2  0
  7  8  1  0
  8  9  2  0
  9 10  1  0
  9 11  1  0
 11 12  2  0
 12 13  1  0
 13 14  1  0
 14 15  2  0
 14 16  1  0
 16 17  1  0
 17 18  2  0
 18 19  1  0
 19 20  2  0
 20 21  1  0
 21 22  2  0
 22 23  1  0
 23 24  2  0
 24 25  1  0
 25 26  2  0
 13 27  1  0
  2 28  1  0
 28 29  1  0
 29 30  1  0
 30 31  1  0
 31 32  2  0
 32 33  1  0
 33 34  2  0
 34 35  1  0
 35 36  1  0
 35 37  1  0
 34 38  1  0
 38 39  2  0
 27  4  1  0
 39 31  1  0
 12  6  1  0
 26 17  1  0
 26 21  1  0
  3 40  1  0
  3 41  1  0
  4 42  1  6
  5 43  1  0
  5 44  1  0
  7 45  1  0
  8 46  1  0
 11 47  1  0
 13 48  1  6
 16 49  1  0
 18 50  1  0
 20 51  1  0
 22 52  1  0
 23 53  1  0
 24 54  1  0
 25 55  1  0
 27 56  1  0
 27 57  1  0
 28 58  1  0
 29 59  1  0
 29 60  1  0
 30 61  1  0
 30 62  1  0
 32 63  1  0
 33 64  1  0
 35 65  1  0
 38 66  1  0
 39 67  1  0
M  CHG  1   4   1
M  END
$$$$
