LIG(A-306)
     RDKit          3D

 33 36  0  0  1  0  0  0  0  0999 V2000
   10.3849    2.2931   25.2316 O   0  0  0  0  0  0  0  0  0  0  0  0
   10.0581    1.3091   24.5935 C   0  0  0  0  0  0  0  0  0  0  0  0
    8.7582    0.8637   24.5637 N   0  0  0  0  0  0  0  0  0  0  0  0
    7.7752    1.4654   25.4498 C   0  0  0  0  0  0  0  0  0  0  0  0
    6.9878    2.6542   24.9220 C   0  0  0  0  0  0  0  0  0  0  0  0
    6.4667    3.4620   25.6921 O   0  0  0  0  0  0  0  0  0  0  0  0
    6.8526    2.7162   23.5880 N   0  0  0  0  0  0  0  0  0  0  0  0
    7.2012    3.8964   22.7831 C   0  0  0  0  0  0  0  0  0  0  0  0
    8.5291    4.5007   23.2069 C   0  0  0  0  0  0  0  0  0  0  0  0
    6.0779    4.9121   22.7983 C   0  0  0  0  0  0  0  0  0  0  0  0
   11.0332    0.5714   23.7694 C   0  0  0  0  0  0  0  0  0  0  0  0
   12.3781    0.9488   23.8002 C   0  0  0  0  0  0  0  0  0  0  0  0
   13.3172    0.2501   23.0640 C   0  0  0  0  0  0  0  0  0  0  0  0
   12.9114   -0.8360   22.3170 C   0  0  0  0  0  0  0  0  0  0  0  0
   14.0996   -1.7536   21.4308 Cl  0  0  0  0  0  0  0  0  0  0  0  0
   11.5835   -1.2164   22.2532 C   0  0  0  0  0  0  0  0  0  0  0  0
   10.6234   -0.4927   22.9573 C   0  0  0  0  0  0  0  0  0  0  0  0
    9.1535   -0.8211   22.8035 C   0  0  1  0  0  0  0  0  0  0  0  0
    8.4096   -0.4804   24.0956 C   0  0  0  0  0  0  0  0  0  0  0  0
    8.5781   -0.0122   21.6386 C   0  0  0  0  0  0  0  0  0  0  0  0
    9.0288    1.0890   21.3176 O   0  0  0  0  0  0  0  0  0  0  0  0
    7.5152   -0.5824   21.0257 N   0  0  0  0  0  0  0  0  0  0  0  0
    6.7529   -0.0565   19.9589 C   0  0  0  0  0  0  0  0  0  0  0  0
    5.6077    0.7381   20.2761 C   0  0  0  0  0  0  0  0  0  0  0  0
    5.0949    0.8839   21.5881 C   0  0  0  0  0  0  0  0  0  0  0  0
    3.9977    1.6536   21.8323 C   0  0  0  0  0  0  0  0  0  0  0  0
    3.3894    2.3045   20.7874 C   0  0  0  0  0  0  0  0  0  0  0  0
    2.2982    3.0701   21.0596 F   0  0  0  0  0  0  0  0  0  0  0  0
    3.8122    2.2147   19.4994 C   0  0  0  0  0  0  0  0  0  0  0  0
    4.9374    1.4040   19.2112 C   0  0  0  0  0  0  0  0  0  0  0  0
    5.4263    1.1992   17.8971 C   0  0  0  0  0  0  0  0  0  0  0  0
    6.4675    0.4345   17.5979 N   0  0  0  0  0  0  0  0  0  0  0  0
    7.1058   -0.1674   18.6118 C   0  0  0  0  0  0  0  0  0  0  0  0
  1  2  2  0
  2  3  1  0
  2 11  1  0
  3  4  1  0
  3 19  1  0
  4  5  1  0
  5  6  2  0
  5  7  1  0
  7  8  1  0
  8  9  1  0
  8 10  1  0
 11 12  2  0
 11 17  1  0
 12 13  1  0
 13 14  2  0
 14 15  1  0
 14 16  1  0
 16 17  2  0
 17 18  1  0
 18 19  1  0
 18 20  1  6
 20 21  2  0
 20 22  1  0
 22 23  1  0
 23 24  1  0
 23 33  2  0
 24 25  2  0
 24 30  1  0
 25 26  1  0
 26 27  2  0
 27 28  1  0
 27 29  1  0
 29 30  2  0
 30 31  1  0
 31 32  2  0
 32 33  1  0
M  END
$$$$
