LIG(B-307)
     RDKit          3D

 35 37  0  0  1  0  0  0  0  0999 V2000
  -58.5102    1.0761  -18.0860 C   0  0  0  0  0  0  0  0  0  0  0  0
  -59.9695   -3.4771  -19.7908 C   0  0  0  0  0  0  0  0  0  0  0  0
  -61.3521   -1.1485  -21.9751 C   0  0  0  0  0  0  0  0  0  0  0  0
  -62.1470    1.7185  -22.4521 C   0  0  0  0  0  0  0  0  0  0  0  0
  -64.1685    4.2682  -23.2479 C   0  0  0  0  0  0  0  0  0  0  0  0
  -57.7025    0.5050  -20.2953 C   0  0  0  0  0  0  0  0  0  0  0  0
  -57.0203    1.7840  -19.7714 C   0  0  0  0  0  0  0  0  0  0  0  0
  -63.4811    0.6029  -24.3059 C   0  0  0  0  0  0  0  0  0  0  0  0
  -58.8957    0.2806  -19.3390 C   0  0  1  0  0  0  0  0  0  0  0  0
  -62.7620   -0.6305  -22.2832 C   0  0  2  0  0  0  0  0  0  0  0  0
  -63.9010   -0.8437  -24.4624 C   0  0  1  0  0  0  0  0  0  0  0  0
  -63.4683   -1.6101  -23.2265 C   0  0  2  0  0  0  0  0  0  0  0  0
  -64.9485   -1.4275  -23.5326 C   0  0  0  0  0  0  0  0  0  0  0  0
  -65.6569   -2.6667  -24.0567 C   0  0  0  0  0  0  0  0  0  0  0  0
  -65.8469   -0.5522  -22.6755 C   0  0  0  0  0  0  0  0  0  0  0  0
  -59.6783    2.4707  -23.8905 C   0  0  0  0  0  0  0  0  0  0  0  0
  -60.0670    4.2224  -22.1266 C   0  0  0  0  0  0  0  0  0  0  0  0
  -60.6485    4.6924  -24.5254 C   0  0  0  0  0  0  0  0  0  0  0  0
  -59.2868   -1.1566  -18.9806 C   0  0  0  0  0  0  0  0  0  0  0  0
  -59.7697   -2.0101  -20.1697 C   0  0  2  0  0  0  0  0  0  0  0  0
  -62.0620    3.0231  -23.2803 C   0  0  2  0  0  0  0  0  0  0  0  0
  -65.0587    5.2412  -22.4446 C   0  0  0  0  0  0  0  0  0  0  0  0
  -60.6126    3.6056  -23.4305 C   0  0  0  0  0  0  0  0  0  0  0  0
  -59.0741   -4.3379  -20.0939 N   0  0  0  0  0  0  0  0  0  0  0  0
  -57.3829    1.7709  -18.3539 N   0  0  0  0  0  0  0  0  0  0  0  0
  -62.7275    0.6446  -23.0300 N   0  0  0  0  0  0  0  0  0  0  0  0
  -61.0703   -1.5395  -20.7079 N   0  0  0  0  0  0  0  0  0  0  0  0
  -62.9860    3.9902  -22.6889 N   0  0  0  0  0  0  0  0  0  0  0  0
  -59.1333    1.0896  -17.0147 O   0  0  0  0  0  0  0  0  0  0  0  0
  -60.4752   -1.1851  -22.8601 O   0  0  0  0  0  0  0  0  0  0  0  0
  -61.7275    1.6884  -21.2813 O   0  0  0  0  0  0  0  0  0  0  0  0
  -64.5992    3.8321  -24.3177 O   0  0  0  0  0  0  0  0  0  0  0  0
  -64.5904    6.5078  -22.4399 F   0  0  0  0  0  0  0  0  0  0  0  0
  -66.3018    5.2593  -22.9622 F   0  0  0  0  0  0  0  0  0  0  0  0
  -65.1468    4.8263  -21.1708 F   0  0  0  0  0  0  0  0  0  0  0  0
  1  9  1  0
  1 25  1  0
  1 29  2  0
 20  2  1  1
  2 24  1  0
 10  3  1  6
  3 27  1  0
  3 30  2  0
  4 21  1  0
  4 26  1  0
  4 31  2  0
  5 22  1  0
  5 28  1  0
  5 32  2  0
  6  7  1  0
  6  9  1  0
  7 25  1  0
 11  8  1  1
  8 26  1  0
  9 19  1  1
 10 12  1  0
 10 26  1  0
 11 12  1  0
 13 11  1  0
 12 13  1  1
 13 14  1  0
 13 15  1  0
 16 23  1  0
 17 23  1  0
 18 23  1  0
 19 20  1  0
 20 27  1  0
 23 21  1  0
 21 28  1  1
 22 33  1  0
 22 34  1  0
 22 35  1  0
M  CHG  1  24   1
M  END
$$$$
