
     RDKit          3D

 67 73  0  0  0  0  0  0  0  0999 V2000
   11.6054    2.8213   25.2245 O   0  0  0  0  0  0  0  0  0  0  0  0
   11.1168    1.9244   24.5450 C   0  0  0  0  0  0  0  0  0  0  0  0
   11.9447    1.0298   23.6818 C   0  0  0  0  0  0  0  0  0  0  0  0
   13.3132    1.2825   23.6409 C   0  0  0  0  0  0  0  0  0  0  0  0
   14.1222    0.6110   22.7481 C   0  0  0  0  0  0  0  0  0  0  0  0
   13.5355   -0.3222   21.8950 C   0  0  0  0  0  0  0  0  0  0  0  0
   14.5247   -1.1687   20.7436 Cl  0  0  0  0  0  0  0  0  0  0  0  0
   12.1817   -0.5962   21.9313 C   0  0  0  0  0  0  0  0  0  0  0  0
   11.3579    0.0641   22.8500 C   0  0  0  0  0  0  0  0  0  0  0  0
    9.8646   -0.1705   22.8136 C   0  0  1  0  0  0  0  0  0  0  0  0
    9.2540    0.4056   24.1167 C   0  0  0  0  0  0  0  0  0  0  0  0
    9.7690    1.7297   24.4138 N   0  0  0  0  0  0  0  0  0  0  0  0
    8.8775    2.8582   24.6490 C   0  0  0  0  0  0  0  0  0  0  0  0
    9.0049    3.9910   23.6351 C   0  0  0  0  0  0  0  0  0  0  0  0
    8.2158    4.1082   22.5064 C   0  0  0  0  0  0  0  0  0  0  0  0
    8.3432    5.2707   21.7420 C   0  0  0  0  0  0  0  0  0  0  0  0
    9.1923    6.2516   22.0338 N   0  0  0  0  0  0  0  0  0  0  0  0
    9.9996    6.1181   23.0766 N   0  0  0  0  0  0  0  0  0  0  0  0
    9.9239    5.0270   23.8368 C   0  0  0  0  0  0  0  0  0  0  0  0
    9.2278    0.4954   21.5665 C   0  0  0  0  0  0  0  0  0  0  0  0
    9.6147    1.4614   20.9489 O   0  0  0  0  0  0  0  0  0  0  0  0
    8.1055   -0.2392   21.2452 N   0  0  0  0  0  0  0  0  0  0  0  0
    7.2299    0.1784   20.2188 C   0  0  0  0  0  0  0  0  0  0  0  0
    7.5078   -0.1321   18.9111 C   0  0  0  0  0  0  0  0  0  0  0  0
    6.7422    0.2363   17.8526 N   0  0  0  0  0  0  0  0  0  0  0  0
    5.6659    0.9399   18.1172 C   0  0  0  0  0  0  0  0  0  0  0  0
    5.2653    1.3360   19.4278 C   0  0  0  0  0  0  0  0  0  0  0  0
    4.0938    2.1069   19.6499 C   0  0  0  0  0  0  0  0  0  0  0  0
    3.7303    2.4673   20.9185 C   0  0  0  0  0  0  0  0  0  0  0  0
    4.5157    2.0780   22.0241 C   0  0  0  0  0  0  0  0  0  0  0  0
    5.6580    1.3349   21.8357 C   0  0  0  0  0  0  0  0  0  0  0  0
    6.0612    0.9427   20.5258 C   0  0  0  0  0  0  0  0  0  0  0  0
    7.9930   -1.4943   21.9566 C   0  0  0  0  0  0  0  0  0  0  0  0
    9.3977   -1.6387   22.5673 C   0  0  2  0  0  0  0  0  0  0  0  0
    9.4851   -2.5935   23.7656 C   0  0  0  0  0  0  0  0  0  0  0  0
    9.3356   -3.9931   23.4344 N   0  0  0  0  0  0  0  0  0  0  0  0
    8.1521   -4.6022   23.1629 C   0  0  0  0  0  0  0  0  0  0  0  0
    6.8988   -4.1417   23.6059 C   0  0  0  0  0  0  0  0  0  0  0  0
    5.7957   -4.8803   23.2220 C   0  0  0  0  0  0  0  0  0  0  0  0
    5.8708   -5.9865   22.4709 N   0  0  0  0  0  0  0  0  0  0  0  0
    7.1072   -6.3364   22.1421 C   0  0  0  0  0  0  0  0  0  0  0  0
    8.2457   -5.7319   22.4453 N   0  0  0  0  0  0  0  0  0  0  0  0
   13.7055    2.0443   24.3043 H   0  0  0  0  0  0  0  0  0  0  0  0
   15.1831    0.8219   22.6748 H   0  0  0  0  0  0  0  0  0  0  0  0
   11.7738   -1.3089   21.2228 H   0  0  0  0  0  0  0  0  0  0  0  0
    9.4894   -0.2794   24.9427 H   0  0  0  0  0  0  0  0  0  0  0  0
    8.1615    0.4613   24.0432 H   0  0  0  0  0  0  0  0  0  0  0  0
    7.8588    2.4597   24.6264 H   0  0  0  0  0  0  0  0  0  0  0  0
    9.0750    3.2407   25.6577 H   0  0  0  0  0  0  0  0  0  0  0  0
    7.4842    3.3505   22.2327 H   0  0  0  0  0  0  0  0  0  0  0  0
    7.7404    5.4215   20.8469 H   0  0  0  0  0  0  0  0  0  0  0  0
   10.6425    4.9697   24.6519 H   0  0  0  0  0  0  0  0  0  0  0  0
    8.4041   -0.7034   18.6787 H   0  0  0  0  0  0  0  0  0  0  0  0
    5.0358    1.2301   17.2753 H   0  0  0  0  0  0  0  0  0  0  0  0
    3.5008    2.4020   18.7888 H   0  0  0  0  0  0  0  0  0  0  0  0
    2.8345    3.0578   21.0842 H   0  0  0  0  0  0  0  0  0  0  0  0
    4.2135    2.3653   23.0268 H   0  0  0  0  0  0  0  0  0  0  0  0
    6.2524    1.0472   22.6983 H   0  0  0  0  0  0  0  0  0  0  0  0
    7.2110   -1.4483   22.7322 H   0  0  0  0  0  0  0  0  0  0  0  0
    7.7267   -2.3027   21.2695 H   0  0  0  0  0  0  0  0  0  0  0  0
   10.0402   -2.0349   21.7741 H   0  0  0  0  0  0  0  0  0  0  0  0
    8.7153   -2.3390   24.4993 H   0  0  0  0  0  0  0  0  0  0  0  0
   10.4480   -2.4793   24.2741 H   0  0  0  0  0  0  0  0  0  0  0  0
   10.1158   -4.4670   23.0041 H   0  0  0  0  0  0  0  0  0  0  0  0
    6.7891   -3.2515   24.2148 H   0  0  0  0  0  0  0  0  0  0  0  0
    4.7894   -4.5845   23.5248 H   0  0  0  0  0  0  0  0  0  0  0  0
    7.2217   -7.2375   21.5470 H   0  0  0  0  0  0  0  0  0  0  0  0
  1  2  2  0
  2  3  1  0
  3  4  2  0
  4  5  1  0
  5  6  2  0
  6  7  1  0
  6  8  1  0
  8  9  2  0
  9 10  1  0
 10 11  1  1
 11 12  1  0
 12 13  1  0
 13 14  1  0
 14 15  2  0
 15 16  1  0
 16 17  2  0
 17 18  1  0
 18 19  2  0
 10 20  1  0
 20 21  2  0
 20 22  1  0
 22 23  1  0
 23 24  2  0
 24 25  1  0
 25 26  2  0
 26 27  1  0
 27 28  2  0
 28 29  1  0
 29 30  2  0
 30 31  1  0
 31 32  2  0
 22 33  1  0
 33 34  1  0
 34 35  1  0
 35 36  1  0
 36 37  1  0
 37 38  2  0
 38 39  1  0
 39 40  2  0
 40 41  1  0
 41 42  2  0
 12  2  1  0
 19 14  1  0
 32 23  1  0
 42 37  1  0
  9  3  1  0
 34 10  1  0
 32 27  1  0
  4 43  1  0
  5 44  1  0
  8 45  1  0
 11 46  1  0
 11 47  1  0
 13 48  1  0
 13 49  1  0
 15 50  1  0
 16 51  1  0
 19 52  1  0
 24 53  1  0
 26 54  1  0
 28 55  1  0
 29 56  1  0
 30 57  1  0
 31 58  1  0
 33 59  1  0
 33 60  1  0
 34 61  1  6
 35 62  1  0
 35 63  1  0
 36 64  1  0
 38 65  1  0
 39 66  1  0
 41 67  1  0
M  END
$$$$
