
     RDKit          3D

 72 77  0  0  0  0  0  0  0  0999 V2000
    9.4839   -2.5250   23.7878 C   0  0  0  0  0  0  0  0  0  0  0  0
    9.3890   -1.5995   22.5858 C   0  0  1  0  0  0  0  0  0  0  0  0
    7.9877   -1.4934   21.9656 C   0  0  0  0  0  0  0  0  0  0  0  0
    8.0911   -0.2620   21.2049 N   0  0  0  0  0  0  0  0  0  0  0  0
    7.2054    0.1525   20.1876 C   0  0  0  0  0  0  0  0  0  0  0  0
    7.5010   -0.1304   18.8797 C   0  0  0  0  0  0  0  0  0  0  0  0
    6.7395    0.2463   17.8233 N   0  0  0  0  0  0  0  0  0  0  0  0
    5.6595    0.9434   18.0983 C   0  0  0  0  0  0  0  0  0  0  0  0
    5.2543    1.3255   19.4104 C   0  0  0  0  0  0  0  0  0  0  0  0
    4.0900    2.1057   19.6336 C   0  0  0  0  0  0  0  0  0  0  0  0
    3.7292    2.4610   20.9044 C   0  0  0  0  0  0  0  0  0  0  0  0
    4.5069    2.0544   22.0092 C   0  0  0  0  0  0  0  0  0  0  0  0
    5.6397    1.2995   21.8224 C   0  0  0  0  0  0  0  0  0  0  0  0
    6.0408    0.9140   20.5084 C   0  0  0  0  0  0  0  0  0  0  0  0
    9.2079    0.4899   21.4957 C   0  0  0  0  0  0  0  0  0  0  0  0
    9.5768    1.4459   20.8446 O   0  0  0  0  0  0  0  0  0  0  0  0
    9.8439   -0.1163   22.7684 C   0  0  1  0  0  0  0  0  0  0  0  0
    9.2132    0.5421   24.0246 C   0  0  0  0  0  0  0  0  0  0  0  0
    9.7137    1.8863   24.2327 N   0  0  0  0  0  0  0  0  0  0  0  0
    8.8152    3.0056   24.4178 C   0  0  0  0  0  0  0  0  0  0  0  0
    8.4792    3.6644   23.0721 C   0  0  0  0  0  0  0  0  0  0  0  0
    7.7383    4.9692   23.1952 N   0  0  1  0  0  4  0  0  0  0  0  0
    6.4917    4.9160   24.0500 C   0  0  0  0  0  0  0  0  0  0  0  0
    5.8124    6.2738   24.0711 C   0  0  0  0  0  0  0  0  0  0  0  0
    6.6791    7.2878   24.5358 O   0  0  0  0  0  0  0  0  0  0  0  0
    7.8572    7.4432   23.7311 C   0  0  0  0  0  0  0  0  0  0  0  0
    7.5092    7.9738   22.3347 C   0  0  0  0  0  0  0  0  0  0  0  0
    8.7093    8.4445   24.4929 C   0  0  0  0  0  0  0  0  0  0  0  0
    8.6227    6.1129   23.6234 C   0  0  0  0  0  0  0  0  0  0  0  0
   11.0565    2.0828   24.3900 C   0  0  0  0  0  0  0  0  0  0  0  0
   11.5375    3.0117   25.0252 O   0  0  0  0  0  0  0  0  0  0  0  0
   11.9053    1.1196   23.6136 C   0  0  0  0  0  0  0  0  0  0  0  0
   13.2817    1.3183   23.6400 C   0  0  0  0  0  0  0  0  0  0  0  0
   14.1042    0.6136   22.7850 C   0  0  0  0  0  0  0  0  0  0  0  0
   13.5243   -0.3092   21.9174 C   0  0  0  0  0  0  0  0  0  0  0  0
   14.5195   -1.1657   20.7826 Cl  0  0  0  0  0  0  0  0  0  0  0  0
   12.1706   -0.5767   21.9347 C   0  0  0  0  0  0  0  0  0  0  0  0
   11.3337    0.1232   22.8085 C   0  0  0  0  0  0  0  0  0  0  0  0
   10.4868   -2.5084   24.2260 H   0  0  0  0  0  0  0  0  0  0  0  0
    9.2607   -3.5546   23.4889 H   0  0  0  0  0  0  0  0  0  0  0  0
    8.7679   -2.2440   24.5662 H   0  0  0  0  0  0  0  0  0  0  0  0
   10.0273   -2.0102   21.7982 H   0  0  0  0  0  0  0  0  0  0  0  0
    7.7567   -2.3371   21.3062 H   0  0  0  0  0  0  0  0  0  0  0  0
    7.2049   -1.4462   22.7412 H   0  0  0  0  0  0  0  0  0  0  0  0
    8.4088   -0.6868   18.6517 H   0  0  0  0  0  0  0  0  0  0  0  0
    5.0303    1.2409   17.2609 H   0  0  0  0  0  0  0  0  0  0  0  0
    3.5005    2.4123   18.7742 H   0  0  0  0  0  0  0  0  0  0  0  0
    2.8373    3.0541   21.0747 H   0  0  0  0  0  0  0  0  0  0  0  0
    4.2028    2.3352   23.0149 H   0  0  0  0  0  0  0  0  0  0  0  0
    6.2242    1.0079   22.6911 H   0  0  0  0  0  0  0  0  0  0  0  0
    8.1211    0.5811   23.9497 H   0  0  0  0  0  0  0  0  0  0  0  0
    9.4688   -0.0716   24.8992 H   0  0  0  0  0  0  0  0  0  0  0  0
    7.9008    2.6387   24.9000 H   0  0  0  0  0  0  0  0  0  0  0  0
    9.3240    3.6992   25.0958 H   0  0  0  0  0  0  0  0  0  0  0  0
    9.3959    3.8471   22.4992 H   0  0  0  0  0  0  0  0  0  0  0  0
    7.8640    2.9858   22.4701 H   0  0  0  0  0  0  0  0  0  0  0  0
    7.4278    5.1824   22.2290 H   0  0  0  0  0  0  0  0  0  0  0  0
    5.8164    4.1518   23.6584 H   0  0  0  0  0  0  0  0  0  0  0  0
    6.7715    4.6408   25.0673 H   0  0  0  0  0  0  0  0  0  0  0  0
    5.4297    6.5150   23.0715 H   0  0  0  0  0  0  0  0  0  0  0  0
    4.9577    6.2583   24.7515 H   0  0  0  0  0  0  0  0  0  0  0  0
    8.4061    8.0325   21.7056 H   0  0  0  0  0  0  0  0  0  0  0  0
    6.8085    7.3122   21.8193 H   0  0  0  0  0  0  0  0  0  0  0  0
    7.0608    8.9726   22.4020 H   0  0  0  0  0  0  0  0  0  0  0  0
    9.6578    8.6261   23.9767 H   0  0  0  0  0  0  0  0  0  0  0  0
    8.1638    9.3871   24.5838 H   0  0  0  0  0  0  0  0  0  0  0  0
    8.9148    8.0716   25.5015 H   0  0  0  0  0  0  0  0  0  0  0  0
    9.0726    5.8581   24.5859 H   0  0  0  0  0  0  0  0  0  0  0  0
    9.4389    6.2256   22.8998 H   0  0  0  0  0  0  0  0  0  0  0  0
   13.6707    2.0700   24.3161 H   0  0  0  0  0  0  0  0  0  0  0  0
   15.1678    0.8089   22.7389 H   0  0  0  0  0  0  0  0  0  0  0  0
   11.7739   -1.3109   21.2425 H   0  0  0  0  0  0  0  0  0  0  0  0
  1  2  1  0
  2  3  1  0
  3  4  1  0
  4  5  1  0
  5  6  2  0
  6  7  1  0
  7  8  2  0
  8  9  1  0
  9 10  2  0
 10 11  1  0
 11 12  2  0
 12 13  1  0
 13 14  2  0
  4 15  1  0
 15 16  2  0
 15 17  1  0
 17 18  1  1
 18 19  1  0
 19 20  1  0
 20 21  1  0
 21 22  1  0
 22 23  1  0
 23 24  1  0
 24 25  1  0
 25 26  1  0
 26 27  1  0
 26 28  1  0
 26 29  1  0
 19 30  1  0
 30 31  2  0
 30 32  1  0
 32 33  2  0
 33 34  1  0
 34 35  2  0
 35 36  1  0
 35 37  1  0
 37 38  2  0
 17  2  1  0
 29 22  1  0
 38 32  1  0
 14  5  1  0
 38 17  1  0
 14  9  1  0
  1 39  1  0
  1 40  1  0
  1 41  1  0
  2 42  1  6
  3 43  1  0
  3 44  1  0
  6 45  1  0
  8 46  1  0
 10 47  1  0
 11 48  1  0
 12 49  1  0
 13 50  1  0
 18 51  1  0
 18 52  1  0
 20 53  1  0
 20 54  1  0
 21 55  1  0
 21 56  1  0
 22 57  1  6
 23 58  1  0
 23 59  1  0
 24 60  1  0
 24 61  1  0
 27 62  1  0
 27 63  1  0
 27 64  1  0
 28 65  1  0
 28 66  1  0
 28 67  1  0
 29 68  1  0
 29 69  1  0
 33 70  1  0
 34 71  1  0
 37 72  1  0
M  CHG  1  22   1
M  END
$$$$
