
     RDKit          3D

 61 66  0  0  0  0  0  0  0  0999 V2000
    7.1805    4.6177   22.5385 C   0  0  0  0  0  0  0  0  0  0  0  0
    7.9707    3.6557   23.2855 N   0  0  0  0  0  0  0  0  0  0  0  0
    7.6565    3.4191   24.5795 C   0  0  0  0  0  0  0  0  0  0  0  0
    6.8011    4.0518   25.1890 O   0  0  0  0  0  0  0  0  0  0  0  0
    8.4325    2.3232   25.3229 C   0  0  0  0  0  0  0  0  0  0  0  0
    9.2805    1.4756   24.5147 N   0  0  0  0  0  0  0  0  0  0  0  0
    8.8473    0.1250   24.2074 C   0  0  0  0  0  0  0  0  0  0  0  0
    9.4099   -0.3734   22.8499 C   0  0  2  0  0  0  0  0  0  0  0  0
    8.7968    0.4657   21.6995 C   0  0  0  0  0  0  0  0  0  0  0  0
    9.1107    1.5878   21.3410 O   0  0  0  0  0  0  0  0  0  0  0  0
    7.7701   -0.2579   21.1460 N   0  0  0  0  0  0  0  0  0  0  0  0
    6.9436    0.2761   20.1301 C   0  0  0  0  0  0  0  0  0  0  0  0
    7.2308   -0.0028   18.8193 C   0  0  0  0  0  0  0  0  0  0  0  0
    6.5146    0.4515   17.7610 N   0  0  0  0  0  0  0  0  0  0  0  0
    5.4745    1.2064   18.0367 C   0  0  0  0  0  0  0  0  0  0  0  0
    5.0605    1.5644   19.3538 C   0  0  0  0  0  0  0  0  0  0  0  0
    3.9257    2.3868   19.5893 C   0  0  0  0  0  0  0  0  0  0  0  0
    3.5517    2.6939   20.8699 C   0  0  0  0  0  0  0  0  0  0  0  0
    4.2808    2.2005   21.9763 C   0  0  0  0  0  0  0  0  0  0  0  0
    5.3867    1.4113   21.7739 C   0  0  0  0  0  0  0  0  0  0  0  0
    5.8090    1.0812   20.4511 C   0  0  0  0  0  0  0  0  0  0  0  0
    7.5278   -1.5332   21.7797 C   0  0  0  0  0  0  0  0  0  0  0  0
    8.8509   -1.7900   22.5135 C   0  0  2  0  0  0  0  0  0  0  0  0
    8.6648   -2.7452   23.6959 C   0  0  0  0  0  0  0  0  0  0  0  0
    8.2430   -4.0758   23.2850 N   0  0  0  0  0  0  0  0  0  0  0  0
    7.0117   -4.4339   22.9461 N   0  0  0  0  0  0  0  0  0  0  0  0
    7.1909   -5.7110   22.6355 C   0  0  0  0  0  0  0  0  0  0  0  0
    8.4717   -6.1013   22.7857 N   0  0  0  0  0  0  0  0  0  0  0  0
    9.1153   -5.0494   23.2009 N   0  0  0  0  0  0  0  0  0  0  0  0
   10.9180   -0.1981   22.9028 C   0  0  0  0  0  0  0  0  0  0  0  0
   11.8225   -1.0547   22.2604 C   0  0  0  0  0  0  0  0  0  0  0  0
   13.1751   -0.7496   22.2593 C   0  0  0  0  0  0  0  0  0  0  0  0
   14.2828   -1.8209   21.4541 Cl  0  0  0  0  0  0  0  0  0  0  0  0
   13.6850    0.3957   22.8679 C   0  0  0  0  0  0  0  0  0  0  0  0
   12.8033    1.2390   23.5068 C   0  0  0  0  0  0  0  0  0  0  0  0
   11.4428    0.9386   23.5442 C   0  0  0  0  0  0  0  0  0  0  0  0
   10.5740    1.8767   24.3220 C   0  0  0  0  0  0  0  0  0  0  0  0
   10.9944    2.9408   24.7551 O   0  0  0  0  0  0  0  0  0  0  0  0
    6.1388    4.2820   22.4566 H   0  0  0  0  0  0  0  0  0  0  0  0
    7.1864    5.6046   23.0168 H   0  0  0  0  0  0  0  0  0  0  0  0
    7.5985    4.7109   21.5338 H   0  0  0  0  0  0  0  0  0  0  0  0
    8.5447    3.0043   22.7529 H   0  0  0  0  0  0  0  0  0  0  0  0
    7.6879    1.7137   25.8434 H   0  0  0  0  0  0  0  0  0  0  0  0
    9.0395    2.8165   26.0919 H   0  0  0  0  0  0  0  0  0  0  0  0
    9.1837   -0.5659   24.9922 H   0  0  0  0  0  0  0  0  0  0  0  0
    7.7513    0.1189   24.1828 H   0  0  0  0  0  0  0  0  0  0  0  0
    8.0967   -0.6233   18.5940 H   0  0  0  0  0  0  0  0  0  0  0  0
    4.8865    1.5724   17.1962 H   0  0  0  0  0  0  0  0  0  0  0  0
    3.3684    2.7626   18.7343 H   0  0  0  0  0  0  0  0  0  0  0  0
    2.6837    3.3193   21.0510 H   0  0  0  0  0  0  0  0  0  0  0  0
    3.9793    2.4645   22.9898 H   0  0  0  0  0  0  0  0  0  0  0  0
    5.9412    1.0400   22.6322 H   0  0  0  0  0  0  0  0  0  0  0  0
    7.3219   -2.3011   21.0340 H   0  0  0  0  0  0  0  0  0  0  0  0
    6.6670   -1.5094   22.4758 H   0  0  0  0  0  0  0  0  0  0  0  0
    9.5283   -2.2801   21.8090 H   0  0  0  0  0  0  0  0  0  0  0  0
    7.9095   -2.3743   24.3863 H   0  0  0  0  0  0  0  0  0  0  0  0
    9.5985   -2.8810   24.2446 H   0  0  0  0  0  0  0  0  0  0  0  0
    6.3988   -6.3794   22.3196 H   0  0  0  0  0  0  0  0  0  0  0  0
   11.5044   -1.9628   21.7573 H   0  0  0  0  0  0  0  0  0  0  0  0
   14.7479    0.6145   22.8358 H   0  0  0  0  0  0  0  0  0  0  0  0
   13.1441    2.1435   23.9983 H   0  0  0  0  0  0  0  0  0  0  0  0
  1  2  1  0
  2  3  1  0
  3  4  2  0
  3  5  1  0
  5  6  1  0
  6  7  1  0
  8  7  1  1
  8  9  1  0
  9 10  2  0
  9 11  1  0
 11 12  1  0
 12 13  2  0
 13 14  1  0
 14 15  2  0
 15 16  1  0
 16 17  2  0
 17 18  1  0
 18 19  2  0
 19 20  1  0
 20 21  2  0
 11 22  1  0
 22 23  1  0
 23 24  1  0
 24 25  1  0
 25 26  1  0
 26 27  2  0
 27 28  1  0
 28 29  2  0
  8 30  1  0
 30 31  2  0
 31 32  1  0
 32 33  1  0
 32 34  2  0
 34 35  1  0
 35 36  2  0
 36 37  1  0
 37 38  2  0
 37  6  1  0
 23  8  1  0
 29 25  1  0
 36 30  1  0
 21 12  1  0
 21 16  1  0
  1 39  1  0
  1 40  1  0
  1 41  1  0
  2 42  1  0
  5 43  1  0
  5 44  1  0
  7 45  1  0
  7 46  1  0
 13 47  1  0
 15 48  1  0
 17 49  1  0
 18 50  1  0
 19 51  1  0
 20 52  1  0
 22 53  1  0
 22 54  1  0
 23 55  1  6
 24 56  1  0
 24 57  1  0
 27 58  1  0
 31 59  1  0
 34 60  1  0
 35 61  1  0
M  END
$$$$
