
     RDKit          3D

 64 68  0  0  0  0  0  0  0  0999 V2000
    7.1747    4.6380   22.5562 C   0  0  0  0  0  0  0  0  0  0  0  0
    7.9748    3.6968   23.3179 N   0  0  0  0  0  0  0  0  0  0  0  0
    7.6535    3.4371   24.6056 C   0  0  0  0  0  0  0  0  0  0  0  0
    6.7966    4.0531   25.2222 O   0  0  0  0  0  0  0  0  0  0  0  0
    8.4156    2.3139   25.3199 C   0  0  0  0  0  0  0  0  0  0  0  0
    9.2749    1.4745   24.5156 N   0  0  0  0  0  0  0  0  0  0  0  0
    8.8456    0.1221   24.2056 C   0  0  0  0  0  0  0  0  0  0  0  0
    9.4179   -0.3675   22.8522 C   0  0  2  0  0  0  0  0  0  0  0  0
    8.8040    0.4653   21.6972 C   0  0  0  0  0  0  0  0  0  0  0  0
    9.1284    1.5744   21.3196 O   0  0  0  0  0  0  0  0  0  0  0  0
    7.7709   -0.2640   21.1555 N   0  0  0  0  0  0  0  0  0  0  0  0
    6.9416    0.2654   20.1377 C   0  0  0  0  0  0  0  0  0  0  0  0
    7.2252   -0.0110   18.8260 C   0  0  0  0  0  0  0  0  0  0  0  0
    6.5064    0.4484   17.7697 N   0  0  0  0  0  0  0  0  0  0  0  0
    5.4679    1.2047   18.0430 C   0  0  0  0  0  0  0  0  0  0  0  0
    5.0560    1.5597   19.3620 C   0  0  0  0  0  0  0  0  0  0  0  0
    3.9239    2.3813   19.6062 C   0  0  0  0  0  0  0  0  0  0  0  0
    3.5470    2.6881   20.8851 C   0  0  0  0  0  0  0  0  0  0  0  0
    4.2797    2.1881   21.9849 C   0  0  0  0  0  0  0  0  0  0  0  0
    5.3865    1.4028   21.7771 C   0  0  0  0  0  0  0  0  0  0  0  0
    5.8070    1.0729   20.4559 C   0  0  0  0  0  0  0  0  0  0  0  0
    7.5508   -1.5448   21.7879 C   0  0  0  0  0  0  0  0  0  0  0  0
    8.8980   -1.7881   22.4891 C   0  0  2  0  0  0  0  0  0  0  0  0
    8.8526   -2.8047   23.6314 C   0  0  0  0  0  0  0  0  0  0  0  0
    8.4834   -4.4671   23.0758 S   0  0  0  0  0  0  0  0  0  0  0  0
    8.7492   -4.5496   21.6503 O   0  0  0  0  0  0  0  0  0  0  0  0
    9.0884   -5.3834   24.0324 O   0  0  0  0  0  0  0  0  0  0  0  0
    6.8460   -4.5802   23.2077 N   0  0  0  0  0  0  0  0  0  0  0  0
    6.1924   -4.8830   24.4633 C   0  0  0  0  0  0  0  0  0  0  0  0
   10.9222   -0.1905   22.9117 C   0  0  0  0  0  0  0  0  0  0  0  0
   11.8291   -1.0552   22.2835 C   0  0  0  0  0  0  0  0  0  0  0  0
   13.1763   -0.7457   22.2790 C   0  0  0  0  0  0  0  0  0  0  0  0
   14.0279   -1.5764   21.6499 F   0  0  0  0  0  0  0  0  0  0  0  0
   13.6916    0.3987   22.8785 C   0  0  0  0  0  0  0  0  0  0  0  0
   12.8044    1.2429   23.5168 C   0  0  0  0  0  0  0  0  0  0  0  0
   11.4419    0.9452   23.5536 C   0  0  0  0  0  0  0  0  0  0  0  0
   10.5608    1.8924   24.3060 C   0  0  0  0  0  0  0  0  0  0  0  0
   10.9592    2.9826   24.6932 O   0  0  0  0  0  0  0  0  0  0  0  0
    7.1789    5.6339   23.0153 H   0  0  0  0  0  0  0  0  0  0  0  0
    6.1318    4.2982   22.4814 H   0  0  0  0  0  0  0  0  0  0  0  0
    7.5957    4.7078   21.5487 H   0  0  0  0  0  0  0  0  0  0  0  0
    8.6415    3.1223   22.8126 H   0  0  0  0  0  0  0  0  0  0  0  0
    7.6531    1.6976   25.8060 H   0  0  0  0  0  0  0  0  0  0  0  0
    9.0138    2.7812   26.1076 H   0  0  0  0  0  0  0  0  0  0  0  0
    7.7502    0.1093   24.1720 H   0  0  0  0  0  0  0  0  0  0  0  0
    9.1711   -0.5694   24.9954 H   0  0  0  0  0  0  0  0  0  0  0  0
    8.0899   -0.6277   18.5860 H   0  0  0  0  0  0  0  0  0  0  0  0
    4.8794    1.5712   17.2006 H   0  0  0  0  0  0  0  0  0  0  0  0
    3.3729    2.7606   18.7511 H   0  0  0  0  0  0  0  0  0  0  0  0
    2.6878    3.3261   21.0705 H   0  0  0  0  0  0  0  0  0  0  0  0
    3.9860    2.4539   22.9978 H   0  0  0  0  0  0  0  0  0  0  0  0
    5.9431    1.0231   22.6296 H   0  0  0  0  0  0  0  0  0  0  0  0
    6.7183   -1.4998   22.5109 H   0  0  0  0  0  0  0  0  0  0  0  0
    7.3073   -2.3069   21.0418 H   0  0  0  0  0  0  0  0  0  0  0  0
    9.5752   -2.1762   21.7276 H   0  0  0  0  0  0  0  0  0  0  0  0
    8.0969   -2.5449   24.3836 H   0  0  0  0  0  0  0  0  0  0  0  0
    9.8213   -2.8739   24.1326 H   0  0  0  0  0  0  0  0  0  0  0  0
    6.3323   -4.0881   22.4895 H   0  0  0  0  0  0  0  0  0  0  0  0
    5.1485   -5.1252   24.2633 H   0  0  0  0  0  0  0  0  0  0  0  0
    6.6692   -5.7514   24.9129 H   0  0  0  0  0  0  0  0  0  0  0  0
    6.2152   -4.0728   25.2007 H   0  0  0  0  0  0  0  0  0  0  0  0
   11.5195   -1.9696   21.7894 H   0  0  0  0  0  0  0  0  0  0  0  0
   14.7592    0.5942   22.8265 H   0  0  0  0  0  0  0  0  0  0  0  0
   13.1409    2.1523   24.0030 H   0  0  0  0  0  0  0  0  0  0  0  0
  1  2  1  0
  2  3  1  0
  3  4  2  0
  3  5  1  0
  5  6  1  0
  6  7  1  0
  8  7  1  1
  8  9  1  0
  9 10  2  0
  9 11  1  0
 11 12  1  0
 12 13  2  0
 13 14  1  0
 14 15  2  0
 15 16  1  0
 16 17  2  0
 17 18  1  0
 18 19  2  0
 19 20  1  0
 20 21  2  0
 11 22  1  0
 22 23  1  0
 23 24  1  0
 24 25  1  0
 25 26  2  0
 25 27  2  0
 25 28  1  0
 28 29  1  0
  8 30  1  0
 30 31  2  0
 31 32  1  0
 32 33  1  0
 32 34  2  0
 34 35  1  0
 35 36  2  0
 36 37  1  0
 37 38  2  0
 37  6  1  0
 23  8  1  0
 36 30  1  0
 21 12  1  0
 21 16  1  0
  1 39  1  0
  1 40  1  0
  1 41  1  0
  2 42  1  0
  5 43  1  0
  5 44  1  0
  7 45  1  0
  7 46  1  0
 13 47  1  0
 15 48  1  0
 17 49  1  0
 18 50  1  0
 19 51  1  0
 20 52  1  0
 22 53  1  0
 22 54  1  0
 23 55  1  6
 24 56  1  0
 24 57  1  0
 28 58  1  0
 29 59  1  0
 29 60  1  0
 29 61  1  0
 31 62  1  0
 34 63  1  0
 35 64  1  0
M  END
$$$$
