
     RDKit          3D

 46 50  0  0  0  0  0  0  0  0999 V2000
  -14.6637   -3.9524  -21.7982 N   0  0  0  0  0  0  0  0  0  0  0  0
  -14.3170   -2.6915  -20.7675 S   0  0  0  0  0  0  0  0  0  0  0  0
  -15.5217   -1.9782  -20.3825 O   0  0  0  0  0  0  0  0  0  0  0  0
  -13.4592   -3.2382  -19.7397 O   0  0  0  0  0  0  0  0  0  0  0  0
  -13.4360   -1.6558  -21.8693 C   0  0  0  0  0  0  0  0  0  0  0  0
  -14.1698   -0.7479  -22.6339 C   0  0  0  0  0  0  0  0  0  0  0  0
  -13.4866    0.1359  -23.4480 C   0  0  0  0  0  0  0  0  0  0  0  0
  -12.0938    0.0780  -23.4784 C   0  0  0  0  0  0  0  0  0  0  0  0
  -11.3623   -0.8397  -22.7141 C   0  0  0  0  0  0  0  0  0  0  0  0
  -12.0562   -1.7308  -21.9052 C   0  0  0  0  0  0  0  0  0  0  0  0
   -9.8575   -0.7829  -22.6691 C   0  0  2  0  0  0  0  0  0  0  0  0
   -9.2707   -0.0782  -23.9234 C   0  0  0  0  0  0  0  0  0  0  0  0
  -10.3270    0.3916  -24.9211 C   0  0  0  0  0  0  0  0  0  0  0  0
  -11.4491    0.9694  -24.2780 O   0  0  0  0  0  0  0  0  0  0  0  0
   -9.2572   -2.0939  -22.4286 N   0  0  0  0  0  0  0  0  0  0  0  0
   -8.3089   -2.1097  -21.4393 C   0  0  0  0  0  0  0  0  0  0  0  0
   -7.5625   -3.0023  -21.1101 O   0  0  0  0  0  0  0  0  0  0  0  0
   -8.3713   -0.8376  -20.8400 N   0  0  0  0  0  0  0  0  0  0  0  0
   -7.4923   -0.3315  -19.8430 C   0  0  0  0  0  0  0  0  0  0  0  0
   -7.7890   -0.5296  -18.5245 C   0  0  0  0  0  0  0  0  0  0  0  0
   -7.1286    0.0524  -17.4908 N   0  0  0  0  0  0  0  0  0  0  0  0
   -6.1310    0.8492  -17.7958 C   0  0  0  0  0  0  0  0  0  0  0  0
   -5.6938    1.1131  -19.1261 C   0  0  0  0  0  0  0  0  0  0  0  0
   -4.6028    1.9777  -19.4002 C   0  0  0  0  0  0  0  0  0  0  0  0
   -4.1841    2.1801  -20.6873 C   0  0  0  0  0  0  0  0  0  0  0  0
   -4.8366    1.5249  -21.7582 C   0  0  0  0  0  0  0  0  0  0  0  0
   -5.9049    0.6978  -21.5189 C   0  0  0  0  0  0  0  0  0  0  0  0
   -6.3717    0.4861  -20.1920 C   0  0  0  0  0  0  0  0  0  0  0  0
   -9.3692   -0.0391  -21.4005 C   0  0  0  0  0  0  0  0  0  0  0  0
   -9.7213    1.0220  -20.9574 O   0  0  0  0  0  0  0  0  0  0  0  0
  -15.2634   -3.7220  -22.5883 H   0  0  0  0  0  0  0  0  0  0  0  0
  -15.0481   -4.7216  -21.2693 H   0  0  0  0  0  0  0  0  0  0  0  0
  -15.2577   -0.7471  -22.5773 H   0  0  0  0  0  0  0  0  0  0  0  0
  -13.9866    0.8947  -24.0432 H   0  0  0  0  0  0  0  0  0  0  0  0
  -11.5388   -2.4732  -21.3029 H   0  0  0  0  0  0  0  0  0  0  0  0
   -8.5860   -0.7726  -24.4154 H   0  0  0  0  0  0  0  0  0  0  0  0
   -8.6798    0.7786  -23.5858 H   0  0  0  0  0  0  0  0  0  0  0  0
   -9.9455    1.1783  -25.5725 H   0  0  0  0  0  0  0  0  0  0  0  0
  -10.6734   -0.4393  -25.5462 H   0  0  0  0  0  0  0  0  0  0  0  0
   -9.3161   -2.8547  -23.0858 H   0  0  0  0  0  0  0  0  0  0  0  0
   -8.6272   -1.1745  -18.2767 H   0  0  0  0  0  0  0  0  0  0  0  0
   -5.6063    1.3258  -16.9678 H   0  0  0  0  0  0  0  0  0  0  0  0
   -4.1250    2.4727  -18.5590 H   0  0  0  0  0  0  0  0  0  0  0  0
   -3.3612    2.8585  -20.8981 H   0  0  0  0  0  0  0  0  0  0  0  0
   -4.4960    1.6944  -22.7765 H   0  0  0  0  0  0  0  0  0  0  0  0
   -6.3945    0.1767  -22.3369 H   0  0  0  0  0  0  0  0  0  0  0  0
  1  2  1  0
  2  3  2  0
  2  4  2  0
  2  5  1  0
  5  6  2  0
  6  7  1  0
  7  8  2  0
  8  9  1  0
  9 10  2  0
  9 11  1  0
 11 12  1  0
 12 13  1  0
 13 14  1  0
 11 15  1  6
 15 16  1  0
 16 17  2  0
 16 18  1  0
 18 19  1  0
 19 20  2  0
 20 21  1  0
 21 22  2  0
 22 23  1  0
 23 24  2  0
 24 25  1  0
 25 26  2  0
 26 27  1  0
 27 28  2  0
 18 29  1  0
 29 30  2  0
 10  5  1  0
 29 11  1  0
 14  8  1  0
 28 19  1  0
 28 23  1  0
  1 31  1  0
  1 32  1  0
  6 33  1  0
  7 34  1  0
 10 35  1  0
 12 36  1  0
 12 37  1  0
 13 38  1  0
 13 39  1  0
 15 40  1  0
 20 41  1  0
 22 42  1  0
 24 43  1  0
 25 44  1  0
 26 45  1  0
 27 46  1  0
M  END
$$$$
