
     RDKit          3D

 58 63  0  0  0  0  0  0  0  0999 V2000
    8.8511   -2.7963   23.6514 C   0  0  0  0  0  0  0  0  0  0  0  0
    8.9122   -1.7966   22.5041 C   0  0  1  0  0  0  0  0  0  0  0  0
    7.5695   -1.5476   21.8077 C   0  0  0  0  0  0  0  0  0  0  0  0
    7.7743   -0.2655   21.1609 N   0  0  0  0  0  0  0  0  0  0  0  0
    6.9383    0.2611   20.1401 C   0  0  0  0  0  0  0  0  0  0  0  0
    7.2104   -0.0151   18.8242 C   0  0  0  0  0  0  0  0  0  0  0  0
    6.4864    0.4450   17.7720 N   0  0  0  0  0  0  0  0  0  0  0  0
    5.4484    1.2054   18.0390 C   0  0  0  0  0  0  0  0  0  0  0  0
    5.0339    1.5533   19.3580 C   0  0  0  0  0  0  0  0  0  0  0  0
    3.9081    2.3873   19.6125 C   0  0  0  0  0  0  0  0  0  0  0  0
    3.5454    2.6917   20.8966 C   0  0  0  0  0  0  0  0  0  0  0  0
    4.2827    2.1818   21.9915 C   0  0  0  0  0  0  0  0  0  0  0  0
    5.3809    1.3866   21.7729 C   0  0  0  0  0  0  0  0  0  0  0  0
    5.7888    1.0565   20.4501 C   0  0  0  0  0  0  0  0  0  0  0  0
    8.8183    0.4638   21.6992 C   0  0  0  0  0  0  0  0  0  0  0  0
    9.1554    1.5561   21.3119 O   0  0  0  0  0  0  0  0  0  0  0  0
    9.4264   -0.3734   22.8595 C   0  0  1  0  0  0  0  0  0  0  0  0
    8.8477    0.1291   24.2112 C   0  0  0  0  0  0  0  0  0  0  0  0
    9.2689    1.4840   24.5170 N   0  0  0  0  0  0  0  0  0  0  0  0
    8.3750    2.3175   25.2918 C   0  0  0  0  0  0  0  0  0  0  0  0
    7.5087    3.2558   24.4622 C   0  0  0  0  0  0  0  0  0  0  0  0
    6.3304    3.7172   24.9885 C   0  0  0  0  0  0  0  0  0  0  0  0
    5.4880    4.6236   24.2499 C   0  0  0  0  0  0  0  0  0  0  0  0
    4.4237    5.1019   24.6054 O   0  0  0  0  0  0  0  0  0  0  0  0
    6.0264    4.9245   22.9851 N   0  0  0  0  0  0  0  0  0  0  0  0
    7.2110    4.4158   22.5432 C   0  0  0  0  0  0  0  0  0  0  0  0
    7.9653    3.6079   23.2206 N   0  0  0  0  0  0  0  0  0  0  0  0
   10.5396    1.9292   24.2733 C   0  0  0  0  0  0  0  0  0  0  0  0
   10.9288    3.0317   24.6304 O   0  0  0  0  0  0  0  0  0  0  0  0
   11.4394    0.9604   23.5566 C   0  0  0  0  0  0  0  0  0  0  0  0
   12.8071    1.2408   23.5193 C   0  0  0  0  0  0  0  0  0  0  0  0
   13.6843    0.3940   22.8707 C   0  0  0  0  0  0  0  0  0  0  0  0
   13.1641   -0.7470   22.2704 C   0  0  0  0  0  0  0  0  0  0  0  0
   13.9996   -1.5788   21.6266 F   0  0  0  0  0  0  0  0  0  0  0  0
   11.8195   -1.0560   22.2897 C   0  0  0  0  0  0  0  0  0  0  0  0
   10.9275   -0.1894   22.9302 C   0  0  0  0  0  0  0  0  0  0  0  0
    8.5954   -3.7977   23.2921 H   0  0  0  0  0  0  0  0  0  0  0  0
    8.0954   -2.5073   24.3882 H   0  0  0  0  0  0  0  0  0  0  0  0
    9.8089   -2.8635   24.1787 H   0  0  0  0  0  0  0  0  0  0  0  0
    9.5654   -2.2111   21.7305 H   0  0  0  0  0  0  0  0  0  0  0  0
    7.3382   -2.3183   21.0686 H   0  0  0  0  0  0  0  0  0  0  0  0
    6.7496   -1.5286   22.5465 H   0  0  0  0  0  0  0  0  0  0  0  0
    8.0707   -0.6314   18.5692 H   0  0  0  0  0  0  0  0  0  0  0  0
    4.8701    1.5855   17.1932 H   0  0  0  0  0  0  0  0  0  0  0  0
    3.3438    2.7858   18.7718 H   0  0  0  0  0  0  0  0  0  0  0  0
    2.6863    3.3329   21.0857 H   0  0  0  0  0  0  0  0  0  0  0  0
    3.9861    2.4322   23.0070 H   0  0  0  0  0  0  0  0  0  0  0  0
    5.9521    0.9983   22.6123 H   0  0  0  0  0  0  0  0  0  0  0  0
    9.1742   -0.5353   25.0243 H   0  0  0  0  0  0  0  0  0  0  0  0
    7.7518    0.1065   24.1719 H   0  0  0  0  0  0  0  0  0  0  0  0
    7.7321    1.6618   25.8917 H   0  0  0  0  0  0  0  0  0  0  0  0
    8.9769    2.8834   26.0074 H   0  0  0  0  0  0  0  0  0  0  0  0
    5.9876    3.4373   25.9740 H   0  0  0  0  0  0  0  0  0  0  0  0
    5.4803    5.5561   22.4114 H   0  0  0  0  0  0  0  0  0  0  0  0
    7.5261    4.7364   21.5506 H   0  0  0  0  0  0  0  0  0  0  0  0
   13.1780    2.1344   24.0079 H   0  0  0  0  0  0  0  0  0  0  0  0
   14.7493    0.6003   22.8133 H   0  0  0  0  0  0  0  0  0  0  0  0
   11.4937   -1.9692   21.8036 H   0  0  0  0  0  0  0  0  0  0  0  0
  1  2  1  0
  2  3  1  0
  3  4  1  0
  4  5  1  0
  5  6  2  0
  6  7  1  0
  7  8  2  0
  8  9  1  0
  9 10  2  0
 10 11  1  0
 11 12  2  0
 12 13  1  0
 13 14  2  0
  4 15  1  0
 15 16  2  0
 15 17  1  0
 17 18  1  1
 18 19  1  0
 19 20  1  0
 20 21  1  0
 21 22  2  0
 22 23  1  0
 23 24  2  0
 23 25  1  0
 25 26  1  0
 26 27  2  0
 19 28  1  0
 28 29  2  0
 28 30  1  0
 30 31  2  0
 31 32  1  0
 32 33  2  0
 33 34  1  0
 33 35  1  0
 35 36  2  0
 17  2  1  0
 27 21  1  0
 36 30  1  0
 14  5  1  0
 36 17  1  0
 14  9  1  0
  1 37  1  0
  1 38  1  0
  1 39  1  0
  2 40  1  6
  3 41  1  0
  3 42  1  0
  6 43  1  0
  8 44  1  0
 10 45  1  0
 11 46  1  0
 12 47  1  0
 13 48  1  0
 18 49  1  0
 18 50  1  0
 20 51  1  0
 20 52  1  0
 22 53  1  0
 25 54  1  0
 26 55  1  0
 31 56  1  0
 32 57  1  0
 35 58  1  0
M  END
$$$$
