
     RDKit          3D

 50 52  0  0  0  0  0  0  0  0999 V2000
   -7.6444    1.1834  -24.1101 C   0  0  0  0  0  0  0  0  0  0  0  0
   -7.5286   -0.1173  -24.3919 C   0  0  0  0  0  0  0  0  0  0  0  0
   -8.1439   -1.3170  -23.6609 C   0  0  0  0  0  0  0  0  0  0  0  0
   -9.1050   -1.0268  -22.6044 N   0  0  0  0  0  0  0  0  0  0  0  0
   -8.6636   -0.4032  -21.4349 C   0  0  0  0  0  0  0  0  0  0  0  0
   -9.1808    0.5873  -20.9649 O   0  0  0  0  0  0  0  0  0  0  0  0
   -7.5417   -1.0340  -20.8723 N   0  0  0  0  0  0  0  0  0  0  0  0
   -6.8681   -0.3547  -19.8226 C   0  0  0  0  0  0  0  0  0  0  0  0
   -7.1610   -0.5373  -18.4951 C   0  0  0  0  0  0  0  0  0  0  0  0
   -6.5580    0.1431  -17.4883 N   0  0  0  0  0  0  0  0  0  0  0  0
   -5.6426    1.0245  -17.8023 C   0  0  0  0  0  0  0  0  0  0  0  0
   -5.2262    1.2947  -19.1342 C   0  0  0  0  0  0  0  0  0  0  0  0
   -4.2288    2.2541  -19.4496 C   0  0  0  0  0  0  0  0  0  0  0  0
   -3.8724    2.4718  -20.7532 C   0  0  0  0  0  0  0  0  0  0  0  0
   -4.4996    1.7517  -21.7974 C   0  0  0  0  0  0  0  0  0  0  0  0
   -5.4591    0.8135  -21.5125 C   0  0  0  0  0  0  0  0  0  0  0  0
   -5.8565    0.5831  -20.1728 C   0  0  0  0  0  0  0  0  0  0  0  0
  -10.4867   -0.8746  -22.9392 C   0  0  0  0  0  0  0  0  0  0  0  0
  -10.9143    0.0123  -23.9257 C   0  0  0  0  0  0  0  0  0  0  0  0
  -12.2778    0.1938  -24.1626 C   0  0  0  0  0  0  0  0  0  0  0  0
  -13.2248   -0.5584  -23.4777 C   0  0  0  0  0  0  0  0  0  0  0  0
  -12.7835   -1.4767  -22.5343 C   0  0  0  0  0  0  0  0  0  0  0  0
  -13.9614   -2.4654  -21.7171 Cl  0  0  0  0  0  0  0  0  0  0  0  0
  -11.4345   -1.6240  -22.2376 C   0  0  0  0  0  0  0  0  0  0  0  0
   -6.5949   -0.4514  -25.5342 C   0  0  0  0  0  0  0  0  0  0  0  0
   -5.6508    0.2705  -25.8214 O   0  0  0  0  0  0  0  0  0  0  0  0
   -6.8526   -1.5885  -26.2333 N   0  0  0  0  0  0  0  0  0  0  0  0
   -5.8093   -2.1663  -27.0614 C   0  0  0  0  0  0  0  0  0  0  0  0
   -6.2778   -3.4446  -27.7388 C   0  0  0  0  0  0  0  0  0  0  0  0
   -7.1484    1.9272  -24.7354 H   0  0  0  0  0  0  0  0  0  0  0  0
   -8.1813    1.5442  -23.2327 H   0  0  0  0  0  0  0  0  0  0  0  0
   -8.6660   -1.9539  -24.3781 H   0  0  0  0  0  0  0  0  0  0  0  0
   -7.3384   -1.9283  -23.2277 H   0  0  0  0  0  0  0  0  0  0  0  0
   -7.6305   -2.0428  -20.7935 H   0  0  0  0  0  0  0  0  0  0  0  0
   -7.9192   -1.2560  -18.1867 H   0  0  0  0  0  0  0  0  0  0  0  0
   -5.1709    1.5614  -16.9806 H   0  0  0  0  0  0  0  0  0  0  0  0
   -3.7592    2.7986  -18.6342 H   0  0  0  0  0  0  0  0  0  0  0  0
   -3.1033    3.1988  -20.9993 H   0  0  0  0  0  0  0  0  0  0  0  0
   -4.2426    1.9557  -22.8327 H   0  0  0  0  0  0  0  0  0  0  0  0
   -5.9410    0.2445  -22.3006 H   0  0  0  0  0  0  0  0  0  0  0  0
  -10.1596    0.5533  -24.4868 H   0  0  0  0  0  0  0  0  0  0  0  0
  -12.6184    0.9233  -24.8907 H   0  0  0  0  0  0  0  0  0  0  0  0
  -14.2890   -0.4293  -23.6577 H   0  0  0  0  0  0  0  0  0  0  0  0
  -11.1254   -2.3257  -21.4700 H   0  0  0  0  0  0  0  0  0  0  0  0
   -7.7334   -2.0646  -26.1272 H   0  0  0  0  0  0  0  0  0  0  0  0
   -4.9303   -2.3573  -26.4343 H   0  0  0  0  0  0  0  0  0  0  0  0
   -5.4901   -1.4231  -27.7949 H   0  0  0  0  0  0  0  0  0  0  0  0
   -5.4360   -3.9954  -28.1712 H   0  0  0  0  0  0  0  0  0  0  0  0
   -6.7586   -4.1059  -27.0108 H   0  0  0  0  0  0  0  0  0  0  0  0
   -6.9894   -3.2434  -28.5467 H   0  0  0  0  0  0  0  0  0  0  0  0
  1  2  2  0
  2  3  1  0
  3  4  1  0
  4  5  1  0
  5  6  2  0
  5  7  1  0
  7  8  1  0
  8  9  2  0
  9 10  1  0
 10 11  2  0
 11 12  1  0
 12 13  2  0
 13 14  1  0
 14 15  2  0
 15 16  1  0
 16 17  2  0
  4 18  1  0
 18 19  2  0
 19 20  1  0
 20 21  2  0
 21 22  1  0
 22 23  1  0
 22 24  2  0
  2 25  1  0
 25 26  2  0
 25 27  1  0
 27 28  1  0
 28 29  1  0
 17  8  1  0
 24 18  1  0
 17 12  1  0
  1 30  1  0
  1 31  1  0
  3 32  1  0
  3 33  1  0
  7 34  1  0
  9 35  1  0
 11 36  1  0
 13 37  1  0
 14 38  1  0
 15 39  1  0
 16 40  1  0
 19 41  1  0
 20 42  1  0
 21 43  1  0
 24 44  1  0
 27 45  1  0
 28 46  1  0
 28 47  1  0
 29 48  1  0
 29 49  1  0
 29 50  1  0
M  END
$$$$
