
     RDKit          3D

 64 70  0  0  0  0  0  0  0  0999 V2000
   11.5822    2.8134   25.2239 O   0  0  0  0  0  0  0  0  0  0  0  0
   11.1054    1.9213   24.5411 C   0  0  0  0  0  0  0  0  0  0  0  0
   11.9412    1.0304   23.6761 C   0  0  0  0  0  0  0  0  0  0  0  0
   13.3103    1.2863   23.6375 C   0  0  0  0  0  0  0  0  0  0  0  0
   14.1215    0.6141   22.7461 C   0  0  0  0  0  0  0  0  0  0  0  0
   13.5351   -0.3194   21.8934 C   0  0  0  0  0  0  0  0  0  0  0  0
   14.5274   -1.1693   20.7460 Cl  0  0  0  0  0  0  0  0  0  0  0  0
   12.1809   -0.5912   21.9264 C   0  0  0  0  0  0  0  0  0  0  0  0
   11.3547    0.0634   22.8459 C   0  0  0  0  0  0  0  0  0  0  0  0
    9.8600   -0.1752   22.8132 C   0  0  1  0  0  0  0  0  0  0  0  0
    9.2476    0.3810   24.1235 C   0  0  0  0  0  0  0  0  0  0  0  0
    9.7535    1.7101   24.4231 N   0  0  0  0  0  0  0  0  0  0  0  0
    8.8685    2.8361   24.6364 C   0  0  0  0  0  0  0  0  0  0  0  0
    8.7446    3.7764   23.4634 C   0  0  0  0  0  0  0  0  0  0  0  0
    9.3756    4.8842   23.2756 N   0  0  0  0  0  0  0  0  0  0  0  0
    8.8221    5.4789   22.1470 N   0  0  0  0  0  0  0  0  0  0  0  0
    7.8870    4.6866   21.7610 C   0  0  0  0  0  0  0  0  0  0  0  0
    7.7829    3.5764   22.5319 O   0  0  0  0  0  0  0  0  0  0  0  0
    9.1954    0.5252   21.6042 C   0  0  0  0  0  0  0  0  0  0  0  0
    9.5313    1.5501   21.0523 O   0  0  0  0  0  0  0  0  0  0  0  0
    8.1023   -0.2364   21.2428 N   0  0  0  0  0  0  0  0  0  0  0  0
    7.2210    0.1727   20.2142 C   0  0  0  0  0  0  0  0  0  0  0  0
    7.5034   -0.1341   18.9086 C   0  0  0  0  0  0  0  0  0  0  0  0
    6.7408    0.2368   17.8475 N   0  0  0  0  0  0  0  0  0  0  0  0
    5.6632    0.9396   18.1079 C   0  0  0  0  0  0  0  0  0  0  0  0
    5.2567    1.3332   19.4171 C   0  0  0  0  0  0  0  0  0  0  0  0
    4.0900    2.1106   19.6454 C   0  0  0  0  0  0  0  0  0  0  0  0
    3.7303    2.4685   20.9142 C   0  0  0  0  0  0  0  0  0  0  0  0
    4.5141    2.0685   22.0178 C   0  0  0  0  0  0  0  0  0  0  0  0
    5.6482    1.3177   21.8265 C   0  0  0  0  0  0  0  0  0  0  0  0
    6.0488    0.9337   20.5159 C   0  0  0  0  0  0  0  0  0  0  0  0
    7.9976   -1.4941   21.9506 C   0  0  0  0  0  0  0  0  0  0  0  0
    9.4015   -1.6413   22.5577 C   0  0  2  0  0  0  0  0  0  0  0  0
    9.4872   -2.5928   23.7591 C   0  0  0  0  0  0  0  0  0  0  0  0
    9.3338   -3.9925   23.4295 N   0  0  0  0  0  0  0  0  0  0  0  0
    8.1497   -4.6035   23.1584 C   0  0  0  0  0  0  0  0  0  0  0  0
    6.8980   -4.1426   23.6062 C   0  0  0  0  0  0  0  0  0  0  0  0
    5.7959   -4.8816   23.2240 C   0  0  0  0  0  0  0  0  0  0  0  0
    5.8650   -5.9872   22.4737 N   0  0  0  0  0  0  0  0  0  0  0  0
    7.0999   -6.3381   22.1410 C   0  0  0  0  0  0  0  0  0  0  0  0
    8.2401   -5.7340   22.4413 N   0  0  0  0  0  0  0  0  0  0  0  0
   13.7037    2.0509   24.2980 H   0  0  0  0  0  0  0  0  0  0  0  0
   15.1831    0.8241   22.6777 H   0  0  0  0  0  0  0  0  0  0  0  0
   11.7785   -1.3090   21.2217 H   0  0  0  0  0  0  0  0  0  0  0  0
    9.4819   -0.3120   24.9423 H   0  0  0  0  0  0  0  0  0  0  0  0
    8.1544    0.4260   24.0490 H   0  0  0  0  0  0  0  0  0  0  0  0
    7.8859    2.4342   24.8913 H   0  0  0  0  0  0  0  0  0  0  0  0
    9.2723    3.4090   25.4783 H   0  0  0  0  0  0  0  0  0  0  0  0
    7.1568    4.8413   20.9764 H   0  0  0  0  0  0  0  0  0  0  0  0
    8.4043   -0.6999   18.6791 H   0  0  0  0  0  0  0  0  0  0  0  0
    5.0354    1.2317   17.2642 H   0  0  0  0  0  0  0  0  0  0  0  0
    3.4959    2.4139   18.7872 H   0  0  0  0  0  0  0  0  0  0  0  0
    2.8375    3.0630   21.0843 H   0  0  0  0  0  0  0  0  0  0  0  0
    4.2192    2.3572   23.0227 H   0  0  0  0  0  0  0  0  0  0  0  0
    6.2456    1.0202   22.6840 H   0  0  0  0  0  0  0  0  0  0  0  0
    7.2199   -1.4504   22.7318 H   0  0  0  0  0  0  0  0  0  0  0  0
    7.7318   -2.2995   21.2615 H   0  0  0  0  0  0  0  0  0  0  0  0
   10.0425   -2.0414   21.7655 H   0  0  0  0  0  0  0  0  0  0  0  0
    8.7192   -2.3347   24.4917 H   0  0  0  0  0  0  0  0  0  0  0  0
   10.4486   -2.4725   24.2714 H   0  0  0  0  0  0  0  0  0  0  0  0
   10.1206   -4.4630   23.0085 H   0  0  0  0  0  0  0  0  0  0  0  0
    6.7880   -3.2533   24.2164 H   0  0  0  0  0  0  0  0  0  0  0  0
    4.7931   -4.5840   23.5283 H   0  0  0  0  0  0  0  0  0  0  0  0
    7.2150   -7.2374   21.5457 H   0  0  0  0  0  0  0  0  0  0  0  0
  1  2  2  0
  2  3  1  0
  3  4  2  0
  4  5  1  0
  5  6  2  0
  6  7  1  0
  6  8  1  0
  8  9  2  0
  9 10  1  0
 10 11  1  1
 11 12  1  0
 12 13  1  0
 13 14  1  0
 14 15  2  0
 15 16  1  0
 16 17  2  0
 17 18  1  0
 10 19  1  0
 19 20  2  0
 19 21  1  0
 21 22  1  0
 22 23  2  0
 23 24  1  0
 24 25  2  0
 25 26  1  0
 26 27  2  0
 27 28  1  0
 28 29  2  0
 29 30  1  0
 30 31  2  0
 21 32  1  0
 32 33  1  0
 33 34  1  0
 34 35  1  0
 35 36  1  0
 36 37  2  0
 37 38  1  0
 38 39  2  0
 39 40  1  0
 40 41  2  0
 12  2  1  0
 18 14  1  0
 31 22  1  0
 41 36  1  0
  9  3  1  0
 33 10  1  0
 31 26  1  0
  4 42  1  0
  5 43  1  0
  8 44  1  0
 11 45  1  0
 11 46  1  0
 13 47  1  0
 13 48  1  0
 17 49  1  0
 23 50  1  0
 25 51  1  0
 27 52  1  0
 28 53  1  0
 29 54  1  0
 30 55  1  0
 32 56  1  0
 32 57  1  0
 33 58  1  6
 34 59  1  0
 34 60  1  0
 35 61  1  0
 37 62  1  0
 38 63  1  0
 40 64  1  0
M  END
$$$$
