
     RDKit          3D

 66 71  0  0  0  0  0  0  0  0999 V2000
    7.1684    4.6496   22.5639 C   0  0  0  0  0  0  0  0  0  0  0  0
    7.9650    3.7117   23.3329 N   0  0  0  0  0  0  0  0  0  0  0  0
    7.6499    3.4494   24.6191 C   0  0  0  0  0  0  0  0  0  0  0  0
    6.7930    4.0646   25.2381 O   0  0  0  0  0  0  0  0  0  0  0  0
    8.4085    2.3101   25.3222 C   0  0  0  0  0  0  0  0  0  0  0  0
    9.2683    1.4771   24.5105 N   0  0  0  0  0  0  0  0  0  0  0  0
    8.8466    0.1197   24.2220 C   0  0  0  0  0  0  0  0  0  0  0  0
    9.4319   -0.3837   22.8844 C   0  0  2  0  0  0  0  0  0  0  0  0
    8.8184    0.4383   21.7121 C   0  0  0  0  0  0  0  0  0  0  0  0
    9.1425    1.5464   21.3302 O   0  0  0  0  0  0  0  0  0  0  0  0
    7.7890   -0.2925   21.1634 N   0  0  0  0  0  0  0  0  0  0  0  0
    6.9531    0.2540   20.1478 C   0  0  0  0  0  0  0  0  0  0  0  0
    7.2240   -0.0083   18.8303 C   0  0  0  0  0  0  0  0  0  0  0  0
    6.4933    0.4472   17.7781 N   0  0  0  0  0  0  0  0  0  0  0  0
    5.4548    1.2013   18.0494 C   0  0  0  0  0  0  0  0  0  0  0  0
    5.0503    1.5588   19.3697 C   0  0  0  0  0  0  0  0  0  0  0  0
    3.9153    2.3800   19.6128 C   0  0  0  0  0  0  0  0  0  0  0  0
    3.5392    2.6855   20.8941 C   0  0  0  0  0  0  0  0  0  0  0  0
    4.2773    2.1797   21.9883 C   0  0  0  0  0  0  0  0  0  0  0  0
    5.3851    1.3933   21.7752 C   0  0  0  0  0  0  0  0  0  0  0  0
    5.8133    1.0687   20.4582 C   0  0  0  0  0  0  0  0  0  0  0  0
    7.5749   -1.5717   21.8147 C   0  0  0  0  0  0  0  0  0  0  0  0
    8.9134   -1.8132   22.5448 C   0  0  2  0  0  0  0  0  0  0  0  0
    8.7504   -2.8218   23.6939 C   0  0  0  0  0  0  0  0  0  0  0  0
    9.9804   -3.1130   24.4033 N   0  0  0  0  0  0  0  0  0  0  0  0
   10.0297   -3.9624   25.4765 C   0  0  0  0  0  0  0  0  0  0  0  0
    8.8904   -4.6128   26.0160 C   0  0  0  0  0  0  0  0  0  0  0  0
    8.9590   -5.3560   27.1105 N   0  0  0  0  0  0  0  0  0  0  0  0
   10.1575   -5.4905   27.6883 C   0  0  0  0  0  0  0  0  0  0  0  0
   11.2839   -4.9170   27.1239 C   0  0  0  0  0  0  0  0  0  0  0  0
   11.2285   -4.1614   26.0252 N   0  0  0  0  0  0  0  0  0  0  0  0
   10.9344   -0.1943   22.9345 C   0  0  0  0  0  0  0  0  0  0  0  0
   11.8279   -1.0552   22.2864 C   0  0  0  0  0  0  0  0  0  0  0  0
   13.1809   -0.7554   22.2473 C   0  0  0  0  0  0  0  0  0  0  0  0
   14.2752   -1.8157   21.4006 Cl  0  0  0  0  0  0  0  0  0  0  0  0
   13.6889    0.3885   22.8632 C   0  0  0  0  0  0  0  0  0  0  0  0
   12.8135    1.2314   23.5202 C   0  0  0  0  0  0  0  0  0  0  0  0
   11.4514    0.9462   23.5659 C   0  0  0  0  0  0  0  0  0  0  0  0
   10.5517    1.9022   24.2969 C   0  0  0  0  0  0  0  0  0  0  0  0
   10.9226    3.0111   24.6634 O   0  0  0  0  0  0  0  0  0  0  0  0
    7.1754    5.6460   23.0200 H   0  0  0  0  0  0  0  0  0  0  0  0
    7.5965    4.6992   21.5595 H   0  0  0  0  0  0  0  0  0  0  0  0
    6.1261    4.3100   22.4943 H   0  0  0  0  0  0  0  0  0  0  0  0
    8.7108    3.2113   22.8681 H   0  0  0  0  0  0  0  0  0  0  0  0
    8.9958    2.7643   26.1276 H   0  0  0  0  0  0  0  0  0  0  0  0
    7.6338    1.6857   25.7762 H   0  0  0  0  0  0  0  0  0  0  0  0
    7.7527    0.1134   24.1637 H   0  0  0  0  0  0  0  0  0  0  0  0
    9.1634   -0.5636   25.0215 H   0  0  0  0  0  0  0  0  0  0  0  0
    8.0781   -0.6314   18.5746 H   0  0  0  0  0  0  0  0  0  0  0  0
    4.8846    1.5712   17.1955 H   0  0  0  0  0  0  0  0  0  0  0  0
    3.3702    2.7660   18.7550 H   0  0  0  0  0  0  0  0  0  0  0  0
    2.6875    3.3353   21.0812 H   0  0  0  0  0  0  0  0  0  0  0  0
    3.9914    2.4480   23.0040 H   0  0  0  0  0  0  0  0  0  0  0  0
    5.9483    1.0093   22.6195 H   0  0  0  0  0  0  0  0  0  0  0  0
    6.7354   -1.5250   22.5292 H   0  0  0  0  0  0  0  0  0  0  0  0
    7.3205   -2.3330   21.0718 H   0  0  0  0  0  0  0  0  0  0  0  0
    9.6229   -2.2184   21.8161 H   0  0  0  0  0  0  0  0  0  0  0  0
    8.3505   -3.7702   23.2948 H   0  0  0  0  0  0  0  0  0  0  0  0
    7.9969   -2.4482   24.4154 H   0  0  0  0  0  0  0  0  0  0  0  0
   10.8859   -2.7202   24.1679 H   0  0  0  0  0  0  0  0  0  0  0  0
    7.9095   -4.5125   25.5557 H   0  0  0  0  0  0  0  0  0  0  0  0
   10.1980   -6.0512   28.6186 H   0  0  0  0  0  0  0  0  0  0  0  0
   12.2634   -5.0482   27.5880 H   0  0  0  0  0  0  0  0  0  0  0  0
   11.4774   -1.9537   21.7923 H   0  0  0  0  0  0  0  0  0  0  0  0
   14.7492    0.6068   22.8208 H   0  0  0  0  0  0  0  0  0  0  0  0
   13.1363    2.1420   24.0108 H   0  0  0  0  0  0  0  0  0  0  0  0
  1  2  1  0
  2  3  1  0
  3  4  2  0
  3  5  1  0
  5  6  1  0
  6  7  1  0
  8  7  1  1
  8  9  1  0
  9 10  2  0
  9 11  1  0
 11 12  1  0
 12 13  2  0
 13 14  1  0
 14 15  2  0
 15 16  1  0
 16 17  2  0
 17 18  1  0
 18 19  2  0
 19 20  1  0
 20 21  2  0
 11 22  1  0
 22 23  1  0
 23 24  1  0
 24 25  1  0
 25 26  1  0
 26 27  2  0
 27 28  1  0
 28 29  2  0
 29 30  1  0
 30 31  2  0
  8 32  1  0
 32 33  2  0
 33 34  1  0
 34 35  1  0
 34 36  2  0
 36 37  1  0
 37 38  2  0
 38 39  1  0
 39 40  2  0
 39  6  1  0
 23  8  1  0
 31 26  1  0
 38 32  1  0
 21 12  1  0
 21 16  1  0
  1 41  1  0
  1 42  1  0
  1 43  1  0
  2 44  1  0
  5 45  1  0
  5 46  1  0
  7 47  1  0
  7 48  1  0
 13 49  1  0
 15 50  1  0
 17 51  1  0
 18 52  1  0
 19 53  1  0
 20 54  1  0
 22 55  1  0
 22 56  1  0
 23 57  1  6
 24 58  1  0
 24 59  1  0
 25 60  1  0
 27 61  1  0
 29 62  1  0
 30 63  1  0
 33 64  1  0
 36 65  1  0
 37 66  1  0
M  END
$$$$
