
     RDKit          3D

 56 60  0  0  0  0  0  0  0  0999 V2000
    7.1708    4.6482   22.5726 C   0  0  0  0  0  0  0  0  0  0  0  0
    7.9516    3.7022   23.3380 N   0  0  0  0  0  0  0  0  0  0  0  0
    7.6469    3.4568   24.6297 C   0  0  0  0  0  0  0  0  0  0  0  0
    6.7950    4.0766   25.2508 O   0  0  0  0  0  0  0  0  0  0  0  0
    8.3951    2.3130   25.3235 C   0  0  0  0  0  0  0  0  0  0  0  0
    9.2534    1.4900   24.4958 N   0  0  0  0  0  0  0  0  0  0  0  0
    8.8468    0.1264   24.2092 C   0  0  0  0  0  0  0  0  0  0  0  0
    9.4271   -0.3722   22.8600 C   0  0  2  0  0  0  0  0  0  0  0  0
    8.8168    0.4590   21.7022 C   0  0  0  0  0  0  0  0  0  0  0  0
    9.1547    1.5649   21.3272 O   0  0  0  0  0  0  0  0  0  0  0  0
    7.7805   -0.2661   21.1551 N   0  0  0  0  0  0  0  0  0  0  0  0
    6.9427    0.2674   20.1392 C   0  0  0  0  0  0  0  0  0  0  0  0
    7.2123   -0.0130   18.8244 C   0  0  0  0  0  0  0  0  0  0  0  0
    6.4865    0.4435   17.7726 N   0  0  0  0  0  0  0  0  0  0  0  0
    5.4495    1.2046   18.0397 C   0  0  0  0  0  0  0  0  0  0  0  0
    5.0344    1.5546   19.3586 C   0  0  0  0  0  0  0  0  0  0  0  0
    3.9060    2.3859   19.6095 C   0  0  0  0  0  0  0  0  0  0  0  0
    3.5427    2.6897   20.8946 C   0  0  0  0  0  0  0  0  0  0  0  0
    4.2776    2.1777   21.9899 C   0  0  0  0  0  0  0  0  0  0  0  0
    5.3794    1.3875   21.7731 C   0  0  0  0  0  0  0  0  0  0  0  0
    5.7937    1.0624   20.4503 C   0  0  0  0  0  0  0  0  0  0  0  0
    7.5658   -1.5473   21.8050 C   0  0  0  0  0  0  0  0  0  0  0  0
    8.9086   -1.7940   22.5046 C   0  0  2  0  0  0  0  0  0  0  0  0
    8.8501   -2.7965   23.6494 C   0  0  0  0  0  0  0  0  0  0  0  0
   10.9306   -0.1886   22.9267 C   0  0  0  0  0  0  0  0  0  0  0  0
   11.8321   -1.0479   22.2889 C   0  0  0  0  0  0  0  0  0  0  0  0
   13.1887   -0.7656   22.2572 C   0  0  0  0  0  0  0  0  0  0  0  0
   13.6816    0.3907   22.8712 C   0  0  0  0  0  0  0  0  0  0  0  0
   12.8085    1.2464   23.5231 C   0  0  0  0  0  0  0  0  0  0  0  0
   11.4417    0.9576   23.5588 C   0  0  0  0  0  0  0  0  0  0  0  0
   10.5350    1.9163   24.2789 C   0  0  0  0  0  0  0  0  0  0  0  0
   10.9032    3.0277   24.6353 O   0  0  0  0  0  0  0  0  0  0  0  0
    7.5892    4.6985   21.5657 H   0  0  0  0  0  0  0  0  0  0  0  0
    6.1297    4.3159   22.4970 H   0  0  0  0  0  0  0  0  0  0  0  0
    7.1809    5.6459   23.0232 H   0  0  0  0  0  0  0  0  0  0  0  0
    8.7699    3.2943   22.9064 H   0  0  0  0  0  0  0  0  0  0  0  0
    7.6271    1.6742   25.7707 H   0  0  0  0  0  0  0  0  0  0  0  0
    8.9720    2.7377   26.1528 H   0  0  0  0  0  0  0  0  0  0  0  0
    7.7529    0.1028   24.1679 H   0  0  0  0  0  0  0  0  0  0  0  0
    9.1724   -0.5406   25.0215 H   0  0  0  0  0  0  0  0  0  0  0  0
    8.0698   -0.6312   18.5684 H   0  0  0  0  0  0  0  0  0  0  0  0
    4.8747    1.5820   17.1919 H   0  0  0  0  0  0  0  0  0  0  0  0
    3.3475    2.7834   18.7632 H   0  0  0  0  0  0  0  0  0  0  0  0
    2.6893    3.3342   21.0906 H   0  0  0  0  0  0  0  0  0  0  0  0
    3.9959    2.4394   23.0085 H   0  0  0  0  0  0  0  0  0  0  0  0
    5.9508    1.0031   22.6148 H   0  0  0  0  0  0  0  0  0  0  0  0
    7.3271   -2.3162   21.0665 H   0  0  0  0  0  0  0  0  0  0  0  0
    6.7441   -1.5301   22.5427 H   0  0  0  0  0  0  0  0  0  0  0  0
    9.5738   -2.1949   21.7365 H   0  0  0  0  0  0  0  0  0  0  0  0
    9.8067   -2.8636   24.1777 H   0  0  0  0  0  0  0  0  0  0  0  0
    8.5956   -3.8000   23.2942 H   0  0  0  0  0  0  0  0  0  0  0  0
    8.0979   -2.5085   24.3894 H   0  0  0  0  0  0  0  0  0  0  0  0
   11.4695   -1.9548   21.8141 H   0  0  0  0  0  0  0  0  0  0  0  0
   13.8570   -1.4462   21.7330 H   0  0  0  0  0  0  0  0  0  0  0  0
   14.7449    0.6165   22.8250 H   0  0  0  0  0  0  0  0  0  0  0  0
   13.1658    2.1476   24.0166 H   0  0  0  0  0  0  0  0  0  0  0  0
  1  2  1  0
  2  3  1  0
  3  4  2  0
  3  5  1  0
  5  6  1  0
  6  7  1  0
  8  7  1  1
  8  9  1  0
  9 10  2  0
  9 11  1  0
 11 12  1  0
 12 13  2  0
 13 14  1  0
 14 15  2  0
 15 16  1  0
 16 17  2  0
 17 18  1  0
 18 19  2  0
 19 20  1  0
 20 21  2  0
 11 22  1  0
 22 23  1  0
 23 24  1  0
  8 25  1  0
 25 26  2  0
 26 27  1  0
 27 28  2  0
 28 29  1  0
 29 30  2  0
 30 31  1  0
 31 32  2  0
 31  6  1  0
 23  8  1  0
 30 25  1  0
 21 12  1  0
 21 16  1  0
  1 33  1  0
  1 34  1  0
  1 35  1  0
  2 36  1  0
  5 37  1  0
  5 38  1  0
  7 39  1  0
  7 40  1  0
 13 41  1  0
 15 42  1  0
 17 43  1  0
 18 44  1  0
 19 45  1  0
 20 46  1  0
 22 47  1  0
 22 48  1  0
 23 49  1  6
 24 50  1  0
 24 51  1  0
 24 52  1  0
 26 53  1  0
 27 54  1  0
 28 55  1  0
 29 56  1  0
M  END
$$$$
