
     RDKit          3D

 56 61  0  0  0  0  0  0  0  0999 V2000
    6.8272    4.9697   21.5024 C   0  0  0  0  0  0  0  0  0  0  0  0
    6.8759    4.4525   22.8527 N   0  0  0  0  0  0  0  0  0  0  0  0
    5.9304    4.5971   23.8089 C   0  0  0  0  0  0  0  0  0  0  0  0
    6.3251    3.8269   24.8783 C   0  0  0  0  0  0  0  0  0  0  0  0
    7.5397    3.2378   24.4594 C   0  0  0  0  0  0  0  0  0  0  0  0
    8.3843    2.3077   25.2883 C   0  0  0  0  0  0  0  0  0  0  0  0
    9.2779    1.4650   24.5290 N   0  0  0  0  0  0  0  0  0  0  0  0
    8.8512    0.1165   24.2086 C   0  0  0  0  0  0  0  0  0  0  0  0
    9.4316   -0.3676   22.8527 C   0  0  1  0  0  0  0  0  0  0  0  0
    8.9098   -1.7771   22.5117 C   0  0  0  0  0  0  0  0  0  0  0  0
    7.5619   -1.5486   21.8162 C   0  0  0  0  0  0  0  0  0  0  0  0
    7.7765   -0.2712   21.1596 N   0  0  0  0  0  0  0  0  0  0  0  0
    6.9422    0.2641   20.1423 C   0  0  0  0  0  0  0  0  0  0  0  0
    7.2142   -0.0124   18.8265 C   0  0  0  0  0  0  0  0  0  0  0  0
    6.4892    0.4437   17.7757 N   0  0  0  0  0  0  0  0  0  0  0  0
    5.4522    1.2062   18.0432 C   0  0  0  0  0  0  0  0  0  0  0  0
    5.0390    1.5592   19.3609 C   0  0  0  0  0  0  0  0  0  0  0  0
    3.9104    2.3908   19.6124 C   0  0  0  0  0  0  0  0  0  0  0  0
    3.5439    2.6962   20.8962 C   0  0  0  0  0  0  0  0  0  0  0  0
    4.2810    2.1846   21.9887 C   0  0  0  0  0  0  0  0  0  0  0  0
    5.3856    1.3969   21.7725 C   0  0  0  0  0  0  0  0  0  0  0  0
    5.7974    1.0666   20.4528 C   0  0  0  0  0  0  0  0  0  0  0  0
    8.8250    0.4543   21.6865 C   0  0  0  0  0  0  0  0  0  0  0  0
    9.1761    1.5348   21.2766 O   0  0  0  0  0  0  0  0  0  0  0  0
   10.9316   -0.1854   22.9234 C   0  0  0  0  0  0  0  0  0  0  0  0
   11.8215   -1.0479   22.2769 C   0  0  0  0  0  0  0  0  0  0  0  0
   13.1740   -0.7506   22.2526 C   0  0  0  0  0  0  0  0  0  0  0  0
   14.2490   -1.8183   21.3957 Cl  0  0  0  0  0  0  0  0  0  0  0  0
   13.6857    0.3935   22.8696 C   0  0  0  0  0  0  0  0  0  0  0  0
   12.8078    1.2415   23.5205 C   0  0  0  0  0  0  0  0  0  0  0  0
   11.4420    0.9594   23.5556 C   0  0  0  0  0  0  0  0  0  0  0  0
   10.5433    1.9195   24.2795 C   0  0  0  0  0  0  0  0  0  0  0  0
   10.9154    3.0289   24.6364 O   0  0  0  0  0  0  0  0  0  0  0  0
    7.8513    3.6134   23.2248 N   0  0  0  0  0  0  0  0  0  0  0  0
    7.8442    5.1181   21.1368 H   0  0  0  0  0  0  0  0  0  0  0  0
    6.2680    4.2971   20.8383 H   0  0  0  0  0  0  0  0  0  0  0  0
    6.3225    5.9350   21.5233 H   0  0  0  0  0  0  0  0  0  0  0  0
    5.0497    5.2052   23.6327 H   0  0  0  0  0  0  0  0  0  0  0  0
    5.8183    3.6878   25.8246 H   0  0  0  0  0  0  0  0  0  0  0  0
    7.7264    1.6635   25.8814 H   0  0  0  0  0  0  0  0  0  0  0  0
    8.9840    2.8727   26.0068 H   0  0  0  0  0  0  0  0  0  0  0  0
    9.1666   -0.5698   25.0096 H   0  0  0  0  0  0  0  0  0  0  0  0
    7.7563    0.1066   24.1631 H   0  0  0  0  0  0  0  0  0  0  0  0
    8.8484   -2.4266   23.3866 H   0  0  0  0  0  0  0  0  0  0  0  0
    9.5785   -2.2719   21.8089 H   0  0  0  0  0  0  0  0  0  0  0  0
    7.3313   -2.3130   21.0699 H   0  0  0  0  0  0  0  0  0  0  0  0
    6.7355   -1.5341   22.5470 H   0  0  0  0  0  0  0  0  0  0  0  0
    8.0702   -0.6315   18.5697 H   0  0  0  0  0  0  0  0  0  0  0  0
    4.8767    1.5813   17.1952 H   0  0  0  0  0  0  0  0  0  0  0  0
    3.3511    2.7841   18.7654 H   0  0  0  0  0  0  0  0  0  0  0  0
    2.6822    3.3355   21.0808 H   0  0  0  0  0  0  0  0  0  0  0  0
    3.9729    2.4181   23.0047 H   0  0  0  0  0  0  0  0  0  0  0  0
    5.9567    0.9991   22.6081 H   0  0  0  0  0  0  0  0  0  0  0  0
   11.4686   -1.9546   21.7949 H   0  0  0  0  0  0  0  0  0  0  0  0
   14.7495    0.6111   22.8149 H   0  0  0  0  0  0  0  0  0  0  0  0
   13.1641    2.1416   24.0111 H   0  0  0  0  0  0  0  0  0  0  0  0
  1  2  1  0
  2  3  1  0
  3  4  2  0
  4  5  1  0
  5  6  1  0
  6  7  1  0
  7  8  1  0
  9  8  1  1
  9 10  1  0
 10 11  1  0
 11 12  1  0
 12 13  1  0
 13 14  2  0
 14 15  1  0
 15 16  2  0
 16 17  1  0
 17 18  2  0
 18 19  1  0
 19 20  2  0
 20 21  1  0
 21 22  2  0
 12 23  1  0
 23 24  2  0
  9 25  1  0
 25 26  2  0
 26 27  1  0
 27 28  1  0
 27 29  2  0
 29 30  1  0
 30 31  2  0
 31 32  1  0
 32 33  2  0
  5 34  2  0
 34  2  1  0
 32  7  1  0
 23  9  1  0
 31 25  1  0
 22 13  1  0
 22 17  1  0
  1 35  1  0
  1 36  1  0
  1 37  1  0
  3 38  1  0
  4 39  1  0
  6 40  1  0
  6 41  1  0
  8 42  1  0
  8 43  1  0
 10 44  1  0
 10 45  1  0
 11 46  1  0
 11 47  1  0
 14 48  1  0
 16 49  1  0
 18 50  1  0
 19 51  1  0
 20 52  1  0
 21 53  1  0
 26 54  1  0
 29 55  1  0
 30 56  1  0
M  END
$$$$
