
     RDKit          3D

 40 42  0  0  0  0  0  0  0  0999 V2000
   -9.8561    0.0784  -20.4338 O   0  0  0  0  0  0  0  0  0  0  0  0
   -9.1954   -0.7333  -21.0546 C   0  0  0  0  0  0  0  0  0  0  0  0
   -7.8334   -1.2606  -20.5694 C   0  0  0  0  0  0  0  0  0  0  0  0
   -7.0914   -0.3710  -19.6146 C   0  0  0  0  0  0  0  0  0  0  0  0
   -7.3949   -0.4279  -18.2804 C   0  0  0  0  0  0  0  0  0  0  0  0
   -6.7640    0.2701  -17.2992 N   0  0  0  0  0  0  0  0  0  0  0  0
   -5.7807    1.0532  -17.6746 C   0  0  0  0  0  0  0  0  0  0  0  0
   -5.3607    1.2254  -19.0225 C   0  0  0  0  0  0  0  0  0  0  0  0
   -4.3103    2.1086  -19.3775 C   0  0  0  0  0  0  0  0  0  0  0  0
   -3.9635    2.2870  -20.6878 C   0  0  0  0  0  0  0  0  0  0  0  0
   -4.6583    1.5885  -21.7003 C   0  0  0  0  0  0  0  0  0  0  0  0
   -5.6711    0.7168  -21.3858 C   0  0  0  0  0  0  0  0  0  0  0  0
   -6.0488    0.5072  -20.0325 C   0  0  0  0  0  0  0  0  0  0  0  0
   -9.6499   -1.3224  -22.2286 N   0  0  0  0  0  0  0  0  0  0  0  0
  -11.0788   -1.2859  -22.5191 C   0  0  0  0  0  0  0  0  0  0  0  0
  -11.4425   -0.1869  -23.5260 C   0  0  0  0  0  0  0  0  0  0  0  0
  -10.5442   -0.2157  -24.7856 C   0  0  0  0  0  0  0  0  0  0  0  0
  -10.9074    0.9035  -25.7498 C   0  0  0  0  0  0  0  0  0  0  0  0
  -12.1787    0.6639  -26.1961 F   0  0  0  0  0  0  0  0  0  0  0  0
  -10.9040    2.1278  -25.1487 F   0  0  0  0  0  0  0  0  0  0  0  0
   -9.0729   -0.2352  -24.3526 C   0  0  0  0  0  0  0  0  0  0  0  0
   -8.8258   -1.4375  -23.4282 C   0  0  0  0  0  0  0  0  0  0  0  0
   -7.1985   -1.5438  -21.4126 H   0  0  0  0  0  0  0  0  0  0  0  0
   -8.0596   -2.2138  -20.0710 H   0  0  0  0  0  0  0  0  0  0  0  0
   -8.2006   -1.0811  -17.9413 H   0  0  0  0  0  0  0  0  0  0  0  0
   -5.2530    1.6107  -16.8979 H   0  0  0  0  0  0  0  0  0  0  0  0
   -3.7977    2.6478  -18.5859 H   0  0  0  0  0  0  0  0  0  0  0  0
   -3.1638    2.9717  -20.9600 H   0  0  0  0  0  0  0  0  0  0  0  0
   -4.3907    1.7496  -22.7388 H   0  0  0  0  0  0  0  0  0  0  0  0
   -6.1998    0.1976  -22.1835 H   0  0  0  0  0  0  0  0  0  0  0  0
  -11.3744   -2.2734  -22.9153 H   0  0  0  0  0  0  0  0  0  0  0  0
  -11.5938   -1.1227  -21.5673 H   0  0  0  0  0  0  0  0  0  0  0  0
  -12.4998   -0.2983  -23.8092 H   0  0  0  0  0  0  0  0  0  0  0  0
  -11.3146    0.7818  -23.0201 H   0  0  0  0  0  0  0  0  0  0  0  0
  -10.7516   -1.1140  -25.3873 H   0  0  0  0  0  0  0  0  0  0  0  0
  -10.2570    0.9684  -26.6317 H   0  0  0  0  0  0  0  0  0  0  0  0
   -8.3659   -0.2465  -25.1943 H   0  0  0  0  0  0  0  0  0  0  0  0
   -8.8700    0.6827  -23.7893 H   0  0  0  0  0  0  0  0  0  0  0  0
   -9.0688   -2.3786  -23.9445 H   0  0  0  0  0  0  0  0  0  0  0  0
   -7.7744   -1.4939  -23.1478 H   0  0  0  0  0  0  0  0  0  0  0  0
  1  2  2  0
  2  3  1  0
  3  4  1  0
  4  5  2  0
  5  6  1  0
  6  7  2  0
  7  8  1  0
  8  9  2  0
  9 10  1  0
 10 11  2  0
 11 12  1  0
 12 13  2  0
  2 14  1  0
 14 15  1  0
 15 16  1  0
 16 17  1  0
 17 18  1  0
 18 19  1  0
 18 20  1  0
 17 21  1  0
 21 22  1  0
 13  4  1  0
 22 14  1  0
 13  8  1  0
  3 23  1  0
  3 24  1  0
  5 25  1  0
  7 26  1  0
  9 27  1  0
 10 28  1  0
 11 29  1  0
 12 30  1  0
 15 31  1  0
 15 32  1  0
 16 33  1  0
 16 34  1  0
 17 35  1  0
 18 36  1  0
 21 37  1  0
 21 38  1  0
 22 39  1  0
 22 40  1  0
M  END
$$$$
