
     RDKit          3D

 67 73  0  0  0  0  0  0  0  0999 V2000
    9.4830   -2.5195   23.7892 C   0  0  0  0  0  0  0  0  0  0  0  0
    9.3846   -1.5887   22.5919 C   0  0  1  0  0  0  0  0  0  0  0  0
    7.9838   -1.4876   21.9692 C   0  0  0  0  0  0  0  0  0  0  0  0
    8.0859   -0.2553   21.2103 N   0  0  0  0  0  0  0  0  0  0  0  0
    7.2023    0.1633   20.1931 C   0  0  0  0  0  0  0  0  0  0  0  0
    7.4989   -0.1252   18.8846 C   0  0  0  0  0  0  0  0  0  0  0  0
    6.7403    0.2518   17.8275 N   0  0  0  0  0  0  0  0  0  0  0  0
    5.6652    0.9568   18.1024 C   0  0  0  0  0  0  0  0  0  0  0  0
    5.2609    1.3490   19.4125 C   0  0  0  0  0  0  0  0  0  0  0  0
    4.0946    2.1251   19.6384 C   0  0  0  0  0  0  0  0  0  0  0  0
    3.7209    2.4670   20.9090 C   0  0  0  0  0  0  0  0  0  0  0  0
    4.4948    2.0584   22.0154 C   0  0  0  0  0  0  0  0  0  0  0  0
    5.6400    1.3211   21.8260 C   0  0  0  0  0  0  0  0  0  0  0  0
    6.0458    0.9370   20.5134 C   0  0  0  0  0  0  0  0  0  0  0  0
    9.2102    0.4900   21.4915 C   0  0  0  0  0  0  0  0  0  0  0  0
    9.5878    1.4288   20.8252 O   0  0  0  0  0  0  0  0  0  0  0  0
    9.8399   -0.1063   22.7725 C   0  0  1  0  0  0  0  0  0  0  0  0
    9.2116    0.5598   24.0243 C   0  0  0  0  0  0  0  0  0  0  0  0
    9.7195    1.9002   24.2417 N   0  0  0  0  0  0  0  0  0  0  0  0
    8.8300    3.0361   24.3995 C   0  0  0  0  0  0  0  0  0  0  0  0
    8.4860    3.6680   23.0437 C   0  0  0  0  0  0  0  0  0  0  0  0
    7.7379    4.9478   23.2071 N   0  0  2  0  0  4  0  0  0  0  0  0
    6.3012    4.8027   23.7407 C   0  0  0  0  0  0  0  0  0  0  0  0
    5.4712    5.5617   22.6974 C   0  0  2  0  0  0  0  0  0  0  0  0
    6.1975    5.2285   21.3950 C   0  0  0  0  0  0  0  0  0  0  0  0
    7.5243    5.7670   21.9357 C   0  0  1  0  0  0  0  0  0  0  0  0
    7.0717    7.1557   22.3863 C   0  0  0  0  0  0  0  0  0  0  0  0
    5.7225    6.9622   22.8487 O   0  0  0  0  0  0  0  0  0  0  0  0
   11.0643    2.0874   24.3981 C   0  0  0  0  0  0  0  0  0  0  0  0
   11.5475    3.0075   25.0413 O   0  0  0  0  0  0  0  0  0  0  0  0
   11.9055    1.1202   23.6182 C   0  0  0  0  0  0  0  0  0  0  0  0
   13.2821    1.3170   23.6437 C   0  0  0  0  0  0  0  0  0  0  0  0
   14.1019    0.6138   22.7854 C   0  0  0  0  0  0  0  0  0  0  0  0
   13.5187   -0.3084   21.9195 C   0  0  0  0  0  0  0  0  0  0  0  0
   14.5123   -1.1666   20.7812 Cl  0  0  0  0  0  0  0  0  0  0  0  0
   12.1642   -0.5724   21.9368 C   0  0  0  0  0  0  0  0  0  0  0  0
   11.3298    0.1251   22.8152 C   0  0  0  0  0  0  0  0  0  0  0  0
   10.4857   -2.5067   24.2276 H   0  0  0  0  0  0  0  0  0  0  0  0
    9.2601   -3.5488   23.4875 H   0  0  0  0  0  0  0  0  0  0  0  0
    8.7679   -2.2455   24.5706 H   0  0  0  0  0  0  0  0  0  0  0  0
   10.0260   -1.9962   21.8056 H   0  0  0  0  0  0  0  0  0  0  0  0
    7.1990   -1.4437   22.7427 H   0  0  0  0  0  0  0  0  0  0  0  0
    7.7589   -2.3332   21.3091 H   0  0  0  0  0  0  0  0  0  0  0  0
    8.4039   -0.6864   18.6599 H   0  0  0  0  0  0  0  0  0  0  0  0
    5.0309    1.2472   17.2663 H   0  0  0  0  0  0  0  0  0  0  0  0
    3.5036    2.4263   18.7796 H   0  0  0  0  0  0  0  0  0  0  0  0
    2.8248    3.0581   21.0729 H   0  0  0  0  0  0  0  0  0  0  0  0
    4.1720    2.3181   23.0199 H   0  0  0  0  0  0  0  0  0  0  0  0
    6.2289    1.0295   22.6918 H   0  0  0  0  0  0  0  0  0  0  0  0
    9.4613   -0.0529   24.8986 H   0  0  0  0  0  0  0  0  0  0  0  0
    8.1213    0.6112   23.9529 H   0  0  0  0  0  0  0  0  0  0  0  0
    7.9224    2.6868   24.9130 H   0  0  0  0  0  0  0  0  0  0  0  0
    9.3527    3.7480   25.0473 H   0  0  0  0  0  0  0  0  0  0  0  0
    7.8949    2.9668   22.4475 H   0  0  0  0  0  0  0  0  0  0  0  0
    9.4004    3.8563   22.4706 H   0  0  0  0  0  0  0  0  0  0  0  0
    8.3024    5.5069   23.8677 H   0  0  0  0  0  0  0  0  0  0  0  0
    6.2407    5.2471   24.7338 H   0  0  0  0  0  0  0  0  0  0  0  0
    6.0373    3.7430   23.7650 H   0  0  0  0  0  0  0  0  0  0  0  0
    4.3962    5.3840   22.7522 H   0  0  0  0  0  0  0  0  0  0  0  0
    5.8235    5.8191   20.5605 H   0  0  0  0  0  0  0  0  0  0  0  0
    6.2041    4.1644   21.1403 H   0  0  0  0  0  0  0  0  0  0  0  0
    8.4038    5.7339   21.2935 H   0  0  0  0  0  0  0  0  0  0  0  0
    7.0675    7.8667   21.5541 H   0  0  0  0  0  0  0  0  0  0  0  0
    7.6856    7.5557   23.2036 H   0  0  0  0  0  0  0  0  0  0  0  0
   13.6730    2.0689   24.3193 H   0  0  0  0  0  0  0  0  0  0  0  0
   15.1655    0.8085   22.7351 H   0  0  0  0  0  0  0  0  0  0  0  0
   11.7679   -1.3077   21.2467 H   0  0  0  0  0  0  0  0  0  0  0  0
  1  2  1  0
  2  3  1  0
  3  4  1  0
  4  5  1  0
  5  6  2  0
  6  7  1  0
  7  8  2  0
  8  9  1  0
  9 10  2  0
 10 11  1  0
 11 12  2  0
 12 13  1  0
 13 14  2  0
  4 15  1  0
 15 16  2  0
 15 17  1  0
 17 18  1  1
 18 19  1  0
 19 20  1  0
 20 21  1  0
 21 22  1  0
 22 23  1  0
 23 24  1  0
 24 25  1  0
 25 26  1  0
 26 27  1  0
 27 28  1  0
 19 29  1  0
 29 30  2  0
 29 31  1  0
 31 32  2  0
 32 33  1  0
 33 34  2  0
 34 35  1  0
 34 36  1  0
 36 37  2  0
 17  2  1  0
 26 22  1  0
 37 31  1  0
 14  5  1  0
 37 17  1  0
 14  9  1  0
 28 24  1  0
  1 38  1  0
  1 39  1  0
  1 40  1  0
  2 41  1  6
  3 42  1  0
  3 43  1  0
  6 44  1  0
  8 45  1  0
 10 46  1  0
 11 47  1  0
 12 48  1  0
 13 49  1  0
 18 50  1  0
 18 51  1  0
 20 52  1  0
 20 53  1  0
 21 54  1  0
 21 55  1  0
 22 56  1  1
 23 57  1  0
 23 58  1  0
 24 59  1  6
 25 60  1  0
 25 61  1  0
 26 62  1  6
 27 63  1  0
 27 64  1  0
 32 65  1  0
 33 66  1  0
 36 67  1  0
M  CHG  1  22   1
M  END
$$$$
