
     RDKit          3D

 62 67  0  0  0  0  0  0  0  0999 V2000
    9.4830   -2.5410   23.7926 C   0  0  0  0  0  0  0  0  0  0  0  0
    9.3963   -1.6008   22.5967 C   0  0  1  0  0  0  0  0  0  0  0  0
    7.9975   -1.4924   21.9691 C   0  0  0  0  0  0  0  0  0  0  0  0
    8.0940   -0.2517   21.2264 N   0  0  0  0  0  0  0  0  0  0  0  0
    7.2100    0.1628   20.2066 C   0  0  0  0  0  0  0  0  0  0  0  0
    7.5030   -0.1322   18.9010 C   0  0  0  0  0  0  0  0  0  0  0  0
    6.7424    0.2428   17.8414 N   0  0  0  0  0  0  0  0  0  0  0  0
    5.6636    0.9426   18.1096 C   0  0  0  0  0  0  0  0  0  0  0  0
    5.2574    1.3299   19.4200 C   0  0  0  0  0  0  0  0  0  0  0  0
    4.0888    2.1016   19.6458 C   0  0  0  0  0  0  0  0  0  0  0  0
    3.7220    2.4553   20.9121 C   0  0  0  0  0  0  0  0  0  0  0  0
    4.5013    2.0588   22.0185 C   0  0  0  0  0  0  0  0  0  0  0  0
    5.6401    1.3130   21.8320 C   0  0  0  0  0  0  0  0  0  0  0  0
    6.0472    0.9286   20.5213 C   0  0  0  0  0  0  0  0  0  0  0  0
    9.2056    0.4985   21.5312 C   0  0  0  0  0  0  0  0  0  0  0  0
    9.5702    1.4683   20.8960 O   0  0  0  0  0  0  0  0  0  0  0  0
    9.8434   -0.1192   22.7921 C   0  0  1  0  0  0  0  0  0  0  0  0
    9.2165    0.5355   24.0427 C   0  0  0  0  0  0  0  0  0  0  0  0
    9.7303    1.8743   24.2511 N   0  0  0  0  0  0  0  0  0  0  0  0
    8.8385    3.0140   24.3754 C   0  0  0  0  0  0  0  0  0  0  0  0
    8.4978    3.6376   23.0202 C   0  0  0  0  0  0  0  0  0  0  0  0
    7.7523    4.9211   23.2015 N   0  0  0  0  0  4  0  0  0  0  0  0
    6.3026    4.8957   23.7167 C   0  0  0  0  0  0  0  0  0  0  0  0
    5.7819    5.6433   22.4505 C   0  0  0  0  0  0  0  0  0  0  0  0
    7.2719    5.7003   21.9872 C   0  0  0  0  0  0  0  0  0  0  0  0
   11.0744    2.0427   24.4490 C   0  0  0  0  0  0  0  0  0  0  0  0
   11.5529    2.9120   25.1601 O   0  0  0  0  0  0  0  0  0  0  0  0
   11.9154    1.0959   23.6420 C   0  0  0  0  0  0  0  0  0  0  0  0
   13.2897    1.3142   23.6363 C   0  0  0  0  0  0  0  0  0  0  0  0
   14.1031    0.6206   22.7612 C   0  0  0  0  0  0  0  0  0  0  0  0
   13.5180   -0.3185   21.9112 C   0  0  0  0  0  0  0  0  0  0  0  0
   14.5151   -1.1695   20.7609 Cl  0  0  0  0  0  0  0  0  0  0  0  0
   12.1612   -0.5757   21.9343 C   0  0  0  0  0  0  0  0  0  0  0  0
   11.3324    0.1136   22.8274 C   0  0  0  0  0  0  0  0  0  0  0  0
    9.2616   -3.5722   23.4907 H   0  0  0  0  0  0  0  0  0  0  0  0
    8.7592   -2.2725   24.5701 H   0  0  0  0  0  0  0  0  0  0  0  0
   10.4816   -2.5315   24.2440 H   0  0  0  0  0  0  0  0  0  0  0  0
   10.0529   -1.9954   21.8148 H   0  0  0  0  0  0  0  0  0  0  0  0
    7.2139   -1.4476   22.7438 H   0  0  0  0  0  0  0  0  0  0  0  0
    7.7583   -2.3234   21.2952 H   0  0  0  0  0  0  0  0  0  0  0  0
    8.4046   -0.6977   18.6722 H   0  0  0  0  0  0  0  0  0  0  0  0
    5.0309    1.2337   17.2716 H   0  0  0  0  0  0  0  0  0  0  0  0
    3.5009    2.4037   18.7854 H   0  0  0  0  0  0  0  0  0  0  0  0
    2.8402    3.0666   21.0810 H   0  0  0  0  0  0  0  0  0  0  0  0
    4.1946    2.3476   23.0196 H   0  0  0  0  0  0  0  0  0  0  0  0
    6.2258    1.0166   22.6976 H   0  0  0  0  0  0  0  0  0  0  0  0
    8.1260    0.5753   23.9765 H   0  0  0  0  0  0  0  0  0  0  0  0
    9.4785   -0.0759   24.9135 H   0  0  0  0  0  0  0  0  0  0  0  0
    9.3599    3.7142   25.0366 H   0  0  0  0  0  0  0  0  0  0  0  0
    7.9256    2.6751   24.8804 H   0  0  0  0  0  0  0  0  0  0  0  0
    7.8847    2.9550   22.4263 H   0  0  0  0  0  0  0  0  0  0  0  0
    9.3941    3.8553   22.4423 H   0  0  0  0  0  0  0  0  0  0  0  0
    8.3526    5.5215   23.7797 H   0  0  0  0  0  0  0  0  0  0  0  0
    6.2373    5.4415   24.6531 H   0  0  0  0  0  0  0  0  0  0  0  0
    5.9397    3.8788   23.8240 H   0  0  0  0  0  0  0  0  0  0  0  0
    5.2969    6.6083   22.6203 H   0  0  0  0  0  0  0  0  0  0  0  0
    5.1524    5.0138   21.8104 H   0  0  0  0  0  0  0  0  0  0  0  0
    7.4901    5.1772   21.0593 H   0  0  0  0  0  0  0  0  0  0  0  0
    7.7156    6.6934   21.9926 H   0  0  0  0  0  0  0  0  0  0  0  0
   13.6833    2.0669   24.3093 H   0  0  0  0  0  0  0  0  0  0  0  0
   15.1678    0.8169   22.7013 H   0  0  0  0  0  0  0  0  0  0  0  0
   11.7631   -1.3103   21.2410 H   0  0  0  0  0  0  0  0  0  0  0  0
  1  2  1  0
  2  3  1  0
  3  4  1  0
  4  5  1  0
  5  6  2  0
  6  7  1  0
  7  8  2  0
  8  9  1  0
  9 10  2  0
 10 11  1  0
 11 12  2  0
 12 13  1  0
 13 14  2  0
  4 15  1  0
 15 16  2  0
 15 17  1  0
 17 18  1  1
 18 19  1  0
 19 20  1  0
 20 21  1  0
 21 22  1  0
 22 23  1  0
 23 24  1  0
 24 25  1  0
 19 26  1  0
 26 27  2  0
 26 28  1  0
 28 29  2  0
 29 30  1  0
 30 31  2  0
 31 32  1  0
 31 33  1  0
 33 34  2  0
 17  2  1  0
 25 22  1  0
 34 28  1  0
 14  5  1  0
 34 17  1  0
 14  9  1  0
  1 35  1  0
  1 36  1  0
  1 37  1  0
  2 38  1  6
  3 39  1  0
  3 40  1  0
  6 41  1  0
  8 42  1  0
 10 43  1  0
 11 44  1  0
 12 45  1  0
 13 46  1  0
 18 47  1  0
 18 48  1  0
 20 49  1  0
 20 50  1  0
 21 51  1  0
 21 52  1  0
 22 53  1  0
 23 54  1  0
 23 55  1  0
 24 56  1  0
 24 57  1  0
 25 58  1  0
 25 59  1  0
 29 60  1  0
 30 61  1  0
 33 62  1  0
M  CHG  1  22   1
M  END
$$$$
