
     RDKit          3D

 56 60  0  0  0  0  0  0  0  0999 V2000
    7.1708    4.6485   22.5725 C   0  0  0  0  0  0  0  0  0  0  0  0
    7.9521    3.7027   23.3378 N   0  0  0  0  0  0  0  0  0  0  0  0
    7.6471    3.4564   24.6292 C   0  0  0  0  0  0  0  0  0  0  0  0
    6.7955    4.0758   25.2516 O   0  0  0  0  0  0  0  0  0  0  0  0
    8.3947    2.3114   25.3218 C   0  0  0  0  0  0  0  0  0  0  0  0
    9.2510    1.4892   24.4907 N   0  0  0  0  0  0  0  0  0  0  0  0
    8.8467    0.1241   24.2124 C   0  0  0  0  0  0  0  0  0  0  0  0
    9.4285   -0.3657   22.8620 C   0  0  2  0  0  0  0  0  0  0  0  0
    8.8178    0.4639   21.7029 C   0  0  0  0  0  0  0  0  0  0  0  0
    9.1561    1.5698   21.3306 O   0  0  0  0  0  0  0  0  0  0  0  0
    7.7820   -0.2634   21.1536 N   0  0  0  0  0  0  0  0  0  0  0  0
    6.9421    0.2679   20.1385 C   0  0  0  0  0  0  0  0  0  0  0  0
    7.2116   -0.0136   18.8247 C   0  0  0  0  0  0  0  0  0  0  0  0
    6.4863    0.4437   17.7731 N   0  0  0  0  0  0  0  0  0  0  0  0
    5.4495    1.2051   18.0400 C   0  0  0  0  0  0  0  0  0  0  0  0
    5.0343    1.5547   19.3587 C   0  0  0  0  0  0  0  0  0  0  0  0
    3.9062    2.3863   19.6094 C   0  0  0  0  0  0  0  0  0  0  0  0
    3.5425    2.6902   20.8944 C   0  0  0  0  0  0  0  0  0  0  0  0
    4.2773    2.1782   21.9897 C   0  0  0  0  0  0  0  0  0  0  0  0
    5.3788    1.3880   21.7727 C   0  0  0  0  0  0  0  0  0  0  0  0
    5.7930    1.0624   20.4502 C   0  0  0  0  0  0  0  0  0  0  0  0
    7.5602   -1.5466   21.7980 C   0  0  0  0  0  0  0  0  0  0  0  0
    8.9054   -1.7787   22.4946 C   0  0  2  0  0  0  0  0  0  0  0  0
    8.8409   -2.7411   23.6429 N   0  0  0  0  0  4  0  0  0  0  0  0
   10.9299   -0.1878   22.9272 C   0  0  0  0  0  0  0  0  0  0  0  0
   11.8232   -1.0516   22.2822 C   0  0  0  0  0  0  0  0  0  0  0  0
   13.1742   -0.7511   22.2545 C   0  0  0  0  0  0  0  0  0  0  0  0
   14.2505   -1.8172   21.3959 Cl  0  0  0  0  0  0  0  0  0  0  0  0
   13.6843    0.3944   22.8693 C   0  0  0  0  0  0  0  0  0  0  0  0
   12.8067    1.2412   23.5231 C   0  0  0  0  0  0  0  0  0  0  0  0
   11.4404    0.9561   23.5624 C   0  0  0  0  0  0  0  0  0  0  0  0
   10.5332    1.9144   24.2788 C   0  0  0  0  0  0  0  0  0  0  0  0
   10.8996    3.0267   24.6356 O   0  0  0  0  0  0  0  0  0  0  0  0
    7.1807    5.6459   23.0229 H   0  0  0  0  0  0  0  0  0  0  0  0
    7.5894    4.6990   21.5660 H   0  0  0  0  0  0  0  0  0  0  0  0
    6.1300    4.3161   22.4968 H   0  0  0  0  0  0  0  0  0  0  0  0
    8.7701    3.2949   22.9067 H   0  0  0  0  0  0  0  0  0  0  0  0
    7.6271    1.6737   25.7708 H   0  0  0  0  0  0  0  0  0  0  0  0
    8.9726    2.7355   26.1506 H   0  0  0  0  0  0  0  0  0  0  0  0
    9.1727   -0.5370   25.0289 H   0  0  0  0  0  0  0  0  0  0  0  0
    7.7529    0.1161   24.1661 H   0  0  0  0  0  0  0  0  0  0  0  0
    8.0698   -0.6311   18.5681 H   0  0  0  0  0  0  0  0  0  0  0  0
    4.8743    1.5828   17.1922 H   0  0  0  0  0  0  0  0  0  0  0  0
    3.3480    2.7839   18.7631 H   0  0  0  0  0  0  0  0  0  0  0  0
    2.6892    3.3348   21.0907 H   0  0  0  0  0  0  0  0  0  0  0  0
    3.9959    2.4396   23.0086 H   0  0  0  0  0  0  0  0  0  0  0  0
    5.9489    1.0048   22.6150 H   0  0  0  0  0  0  0  0  0  0  0  0
    6.7432   -1.5288   22.5412 H   0  0  0  0  0  0  0  0  0  0  0  0
    7.3239   -2.3131   21.0554 H   0  0  0  0  0  0  0  0  0  0  0  0
    9.5736   -2.2164   21.7639 H   0  0  0  0  0  0  0  0  0  0  0  0
    8.6292   -3.6983   23.3034 H   0  0  0  0  0  0  0  0  0  0  0  0
    8.1033   -2.4332   24.2993 H   0  0  0  0  0  0  0  0  0  0  0  0
    9.7445   -2.7507   24.1485 H   0  0  0  0  0  0  0  0  0  0  0  0
   11.4756   -1.9594   21.8006 H   0  0  0  0  0  0  0  0  0  0  0  0
   14.7480    0.6122   22.8144 H   0  0  0  0  0  0  0  0  0  0  0  0
   13.1678    2.1405   24.0121 H   0  0  0  0  0  0  0  0  0  0  0  0
  1  2  1  0
  2  3  1  0
  3  4  2  0
  3  5  1  0
  5  6  1  0
  6  7  1  0
  8  7  1  1
  8  9  1  0
  9 10  2  0
  9 11  1  0
 11 12  1  0
 12 13  2  0
 13 14  1  0
 14 15  2  0
 15 16  1  0
 16 17  2  0
 17 18  1  0
 18 19  2  0
 19 20  1  0
 20 21  2  0
 11 22  1  0
 22 23  1  0
 23 24  1  0
  8 25  1  0
 25 26  2  0
 26 27  1  0
 27 28  1  0
 27 29  2  0
 29 30  1  0
 30 31  2  0
 31 32  1  0
 32 33  2  0
 32  6  1  0
 23  8  1  0
 31 25  1  0
 21 12  1  0
 21 16  1  0
  1 34  1  0
  1 35  1  0
  1 36  1  0
  2 37  1  0
  5 38  1  0
  5 39  1  0
  7 40  1  0
  7 41  1  0
 13 42  1  0
 15 43  1  0
 17 44  1  0
 18 45  1  0
 19 46  1  0
 20 47  1  0
 22 48  1  0
 22 49  1  0
 23 50  1  6
 24 51  1  0
 24 52  1  0
 24 53  1  0
 26 54  1  0
 29 55  1  0
 30 56  1  0
M  CHG  1  24   1
M  END
$$$$
