
     RDKit          3D

 43 45  0  0  0  0  0  0  0  0999 V2000
  -10.6100    2.2796  -25.5719 C   0  0  0  0  0  0  0  0  0  0  0  0
  -10.9630    0.8340  -25.9001 C   0  0  0  0  0  0  0  0  0  0  0  0
  -10.5876   -0.2118  -24.8279 C   0  0  0  0  0  0  0  0  0  0  0  0
  -11.4401   -0.1262  -23.5434 C   0  0  0  0  0  0  0  0  0  0  0  0
  -11.0774   -1.2308  -22.5465 C   0  0  0  0  0  0  0  0  0  0  0  0
   -9.6482   -1.2856  -22.2494 N   0  0  0  0  0  0  0  0  0  0  0  0
   -9.1869   -0.7121  -21.0737 C   0  0  0  0  0  0  0  0  0  0  0  0
   -9.8486    0.0839  -20.4329 O   0  0  0  0  0  0  0  0  0  0  0  0
   -7.8385   -1.2511  -20.5754 C   0  0  0  0  0  0  0  0  0  0  0  0
   -7.0961   -0.3687  -19.6113 C   0  0  0  0  0  0  0  0  0  0  0  0
   -7.3987   -0.4275  -18.2779 C   0  0  0  0  0  0  0  0  0  0  0  0
   -6.7646    0.2658  -17.2958 N   0  0  0  0  0  0  0  0  0  0  0  0
   -5.7819    1.0531  -17.6739 C   0  0  0  0  0  0  0  0  0  0  0  0
   -5.3629    1.2274  -19.0216 C   0  0  0  0  0  0  0  0  0  0  0  0
   -4.3086    2.1066  -19.3761 C   0  0  0  0  0  0  0  0  0  0  0  0
   -3.9619    2.2835  -20.6888 C   0  0  0  0  0  0  0  0  0  0  0  0
   -4.6564    1.5863  -21.7023 C   0  0  0  0  0  0  0  0  0  0  0  0
   -5.6717    0.7187  -21.3861 C   0  0  0  0  0  0  0  0  0  0  0  0
   -6.0535    0.5115  -20.0316 C   0  0  0  0  0  0  0  0  0  0  0  0
   -8.8343   -1.3766  -23.4591 C   0  0  0  0  0  0  0  0  0  0  0  0
   -9.1112   -0.1855  -24.3864 C   0  0  0  0  0  0  0  0  0  0  0  0
   -9.5370    2.3933  -25.4081 H   0  0  0  0  0  0  0  0  0  0  0  0
  -10.8735    2.9641  -26.3824 H   0  0  0  0  0  0  0  0  0  0  0  0
  -11.1280    2.6263  -24.6752 H   0  0  0  0  0  0  0  0  0  0  0  0
  -12.0421    0.7570  -26.0906 H   0  0  0  0  0  0  0  0  0  0  0  0
  -10.4665    0.5586  -26.8396 H   0  0  0  0  0  0  0  0  0  0  0  0
  -10.7765   -1.1910  -25.3070 H   0  0  0  0  0  0  0  0  0  0  0  0
  -11.2886    0.8401  -23.0394 H   0  0  0  0  0  0  0  0  0  0  0  0
  -12.5127   -0.1936  -23.7724 H   0  0  0  0  0  0  0  0  0  0  0  0
  -11.6213   -1.0776  -21.6152 H   0  0  0  0  0  0  0  0  0  0  0  0
  -11.3822   -2.2073  -22.9539 H   0  0  0  0  0  0  0  0  0  0  0  0
   -7.2012   -1.5338  -21.4144 H   0  0  0  0  0  0  0  0  0  0  0  0
   -8.0772   -2.1998  -20.0726 H   0  0  0  0  0  0  0  0  0  0  0  0
   -8.2053   -1.0830  -17.9377 H   0  0  0  0  0  0  0  0  0  0  0  0
   -5.2596    1.6092  -16.8947 H   0  0  0  0  0  0  0  0  0  0  0  0
   -3.7975    2.6501  -18.5864 H   0  0  0  0  0  0  0  0  0  0  0  0
   -3.1670    2.9724  -20.9582 H   0  0  0  0  0  0  0  0  0  0  0  0
   -4.3854    1.7491  -22.7413 H   0  0  0  0  0  0  0  0  0  0  0  0
   -6.1932    0.1967  -22.1860 H   0  0  0  0  0  0  0  0  0  0  0  0
   -7.7757   -1.4204  -23.2013 H   0  0  0  0  0  0  0  0  0  0  0  0
   -9.0914   -2.3107  -23.9745 H   0  0  0  0  0  0  0  0  0  0  0  0
   -8.9186    0.7326  -23.8096 H   0  0  0  0  0  0  0  0  0  0  0  0
   -8.4107   -0.1804  -25.2345 H   0  0  0  0  0  0  0  0  0  0  0  0
  1  2  1  0
  2  3  1  0
  3  4  1  0
  4  5  1  0
  5  6  1  0
  6  7  1  0
  7  8  2  0
  7  9  1  0
  9 10  1  0
 10 11  2  0
 11 12  1  0
 12 13  2  0
 13 14  1  0
 14 15  2  0
 15 16  1  0
 16 17  2  0
 17 18  1  0
 18 19  2  0
  6 20  1  0
 20 21  1  0
 21  3  1  0
 19 10  1  0
 19 14  1  0
  1 22  1  0
  1 23  1  0
  1 24  1  0
  2 25  1  0
  2 26  1  0
  3 27  1  0
  4 28  1  0
  4 29  1  0
  5 30  1  0
  5 31  1  0
  9 32  1  0
  9 33  1  0
 11 34  1  0
 13 35  1  0
 15 36  1  0
 16 37  1  0
 17 38  1  0
 18 39  1  0
 20 40  1  0
 20 41  1  0
 21 42  1  0
 21 43  1  0
M  END
$$$$
