
     RDKit          3D

 59 63  0  0  0  0  0  0  0  0999 V2000
    7.1819    4.5769   21.5383 C   0  0  0  0  0  0  0  0  0  0  0  0
    6.9100    4.7253   23.0320 C   0  0  0  0  0  0  0  0  0  0  0  0
    7.7998    3.7806   23.6869 N   0  0  0  0  0  0  0  0  0  0  0  0
    7.5844    3.3834   24.9590 C   0  0  0  0  0  0  0  0  0  0  0  0
    6.7520    3.8916   25.6966 O   0  0  0  0  0  0  0  0  0  0  0  0
    8.4650    2.2401   25.4869 C   0  0  0  0  0  0  0  0  0  0  0  0
    9.2500    1.5002   24.5086 N   0  0  0  0  0  0  0  0  0  0  0  0
    8.8357    0.1427   24.1897 C   0  0  0  0  0  0  0  0  0  0  0  0
    9.4177   -0.3458   22.8364 C   0  0  2  0  0  0  0  0  0  0  0  0
    8.7880    0.4819   21.6879 C   0  0  0  0  0  0  0  0  0  0  0  0
    9.0791    1.6104   21.3317 O   0  0  0  0  0  0  0  0  0  0  0  0
    7.7751   -0.2661   21.1381 N   0  0  0  0  0  0  0  0  0  0  0  0
    6.9430    0.2625   20.1241 C   0  0  0  0  0  0  0  0  0  0  0  0
    7.2401   -0.0015   18.8125 C   0  0  0  0  0  0  0  0  0  0  0  0
    6.5262    0.4576   17.7574 N   0  0  0  0  0  0  0  0  0  0  0  0
    5.4840    1.2093   18.0348 C   0  0  0  0  0  0  0  0  0  0  0  0
    5.0659    1.5605   19.3511 C   0  0  0  0  0  0  0  0  0  0  0  0
    3.9315    2.3840   19.5880 C   0  0  0  0  0  0  0  0  0  0  0  0
    3.5561    2.6905   20.8686 C   0  0  0  0  0  0  0  0  0  0  0  0
    4.2878    2.1975   21.9715 C   0  0  0  0  0  0  0  0  0  0  0  0
    5.3924    1.4023   21.7704 C   0  0  0  0  0  0  0  0  0  0  0  0
    5.8096    1.0664   20.4482 C   0  0  0  0  0  0  0  0  0  0  0  0
    7.5527   -1.5364   21.7998 C   0  0  0  0  0  0  0  0  0  0  0  0
    8.9044   -1.7722   22.4856 C   0  0  2  0  0  0  0  0  0  0  0  0
    8.8647   -2.7871   23.6201 C   0  0  0  0  0  0  0  0  0  0  0  0
   10.9213   -0.1659   22.8894 C   0  0  0  0  0  0  0  0  0  0  0  0
   11.8250   -1.0341   22.2596 C   0  0  0  0  0  0  0  0  0  0  0  0
   13.1770   -0.7365   22.2620 C   0  0  0  0  0  0  0  0  0  0  0  0
   14.2842   -1.8158   21.4652 Cl  0  0  0  0  0  0  0  0  0  0  0  0
   13.6815    0.4101   22.8737 C   0  0  0  0  0  0  0  0  0  0  0  0
   12.7991    1.2593   23.5065 C   0  0  0  0  0  0  0  0  0  0  0  0
   11.4346    0.9693   23.5336 C   0  0  0  0  0  0  0  0  0  0  0  0
   10.5502    1.9010   24.3143 C   0  0  0  0  0  0  0  0  0  0  0  0
   10.9678    2.9567   24.7623 O   0  0  0  0  0  0  0  0  0  0  0  0
    8.2157    4.8957   21.3600 H   0  0  0  0  0  0  0  0  0  0  0  0
    6.5115    5.1458   20.8782 H   0  0  0  0  0  0  0  0  0  0  0  0
    7.1196    3.5071   21.2840 H   0  0  0  0  0  0  0  0  0  0  0  0
    7.0854    5.7394   23.4118 H   0  0  0  0  0  0  0  0  0  0  0  0
    5.8813    4.4767   23.3151 H   0  0  0  0  0  0  0  0  0  0  0  0
    8.3250    3.1694   23.0695 H   0  0  0  0  0  0  0  0  0  0  0  0
    7.7826    1.5594   26.0086 H   0  0  0  0  0  0  0  0  0  0  0  0
    9.1415    2.6768   26.2334 H   0  0  0  0  0  0  0  0  0  0  0  0
    7.7418    0.1268   24.1548 H   0  0  0  0  0  0  0  0  0  0  0  0
    9.1622   -0.5443   24.9836 H   0  0  0  0  0  0  0  0  0  0  0  0
    8.1092   -0.6156   18.5845 H   0  0  0  0  0  0  0  0  0  0  0  0
    4.8988    1.5793   17.1941 H   0  0  0  0  0  0  0  0  0  0  0  0
    3.3756    2.7609   18.7329 H   0  0  0  0  0  0  0  0  0  0  0  0
    2.6856    3.3155   21.0446 H   0  0  0  0  0  0  0  0  0  0  0  0
    3.9794    2.4513   22.9842 H   0  0  0  0  0  0  0  0  0  0  0  0
    5.9601    1.0429   22.6254 H   0  0  0  0  0  0  0  0  0  0  0  0
    7.3097   -2.3089   21.0658 H   0  0  0  0  0  0  0  0  0  0  0  0
    6.7254   -1.4978   22.5322 H   0  0  0  0  0  0  0  0  0  0  0  0
    9.5617   -2.1503   21.6979 H   0  0  0  0  0  0  0  0  0  0  0  0
    9.8340   -2.8537   24.1251 H   0  0  0  0  0  0  0  0  0  0  0  0
    8.1203   -2.5080   24.3741 H   0  0  0  0  0  0  0  0  0  0  0  0
    8.6066   -3.7837   23.2459 H   0  0  0  0  0  0  0  0  0  0  0  0
   11.5047   -1.9468   21.7668 H   0  0  0  0  0  0  0  0  0  0  0  0
   14.7459    0.6221   22.8503 H   0  0  0  0  0  0  0  0  0  0  0  0
   13.1425    2.1607   24.0015 H   0  0  0  0  0  0  0  0  0  0  0  0
  1  2  1  0
  2  3  1  0
  3  4  1  0
  4  5  2  0
  4  6  1  0
  6  7  1  0
  7  8  1  0
  9  8  1  1
  9 10  1  0
 10 11  2  0
 10 12  1  0
 12 13  1  0
 13 14  2  0
 14 15  1  0
 15 16  2  0
 16 17  1  0
 17 18  2  0
 18 19  1  0
 19 20  2  0
 20 21  1  0
 21 22  2  0
 12 23  1  0
 23 24  1  0
 24 25  1  0
  9 26  1  0
 26 27  2  0
 27 28  1  0
 28 29  1  0
 28 30  2  0
 30 31  1  0
 31 32  2  0
 32 33  1  0
 33 34  2  0
 33  7  1  0
 24  9  1  0
 32 26  1  0
 22 13  1  0
 22 17  1  0
  1 35  1  0
  1 36  1  0
  1 37  1  0
  2 38  1  0
  2 39  1  0
  3 40  1  0
  6 41  1  0
  6 42  1  0
  8 43  1  0
  8 44  1  0
 14 45  1  0
 16 46  1  0
 18 47  1  0
 19 48  1  0
 20 49  1  0
 21 50  1  0
 23 51  1  0
 23 52  1  0
 24 53  1  6
 25 54  1  0
 25 55  1  0
 25 56  1  0
 27 57  1  0
 30 58  1  0
 31 59  1  0
M  END
$$$$
