
     RDKit          3D

 59 64  0  0  0  0  0  0  0  0999 V2000
    8.8507   -2.7969   23.6499 C   0  0  0  0  0  0  0  0  0  0  0  0
    8.9107   -1.7946   22.5043 C   0  0  1  0  0  0  0  0  0  0  0  0
    7.5660   -1.5494   21.8067 C   0  0  0  0  0  0  0  0  0  0  0  0
    7.7737   -0.2690   21.1584 N   0  0  0  0  0  0  0  0  0  0  0  0
    6.9392    0.2624   20.1391 C   0  0  0  0  0  0  0  0  0  0  0  0
    7.2122   -0.0132   18.8242 C   0  0  0  0  0  0  0  0  0  0  0  0
    6.4863    0.4447   17.7723 N   0  0  0  0  0  0  0  0  0  0  0  0
    5.4493    1.2046   18.0395 C   0  0  0  0  0  0  0  0  0  0  0  0
    5.0325    1.5528   19.3574 C   0  0  0  0  0  0  0  0  0  0  0  0
    3.9054    2.3858   19.6104 C   0  0  0  0  0  0  0  0  0  0  0  0
    3.5442    2.6913   20.8933 C   0  0  0  0  0  0  0  0  0  0  0  0
    4.2755    2.1721   21.9869 C   0  0  0  0  0  0  0  0  0  0  0  0
    5.3658    1.3645   21.7690 C   0  0  0  0  0  0  0  0  0  0  0  0
    5.7861    1.0545   20.4491 C   0  0  0  0  0  0  0  0  0  0  0  0
    8.8249    0.4539   21.6883 C   0  0  0  0  0  0  0  0  0  0  0  0
    9.1805    1.5315   21.2738 O   0  0  0  0  0  0  0  0  0  0  0  0
    9.4260   -0.3727   22.8581 C   0  0  1  0  0  0  0  0  0  0  0  0
    8.8467    0.1238   24.2121 C   0  0  0  0  0  0  0  0  0  0  0  0
    9.2581    1.4811   24.5150 N   0  0  0  0  0  0  0  0  0  0  0  0
    8.3882    2.3179   25.3217 C   0  0  0  0  0  0  0  0  0  0  0  0
    7.7316    3.4116   24.5228 C   0  0  0  0  0  0  0  0  0  0  0  0
    7.5900    3.3880   23.2174 N   0  0  0  0  0  0  0  0  0  0  0  0
    6.9007    4.5305   22.9046 C   0  0  0  0  0  0  0  0  0  0  0  0
    6.6107    5.2405   24.0409 C   0  0  0  0  0  0  0  0  0  0  0  0
    7.1439    4.5091   25.0812 N   0  0  0  0  0  0  0  0  0  0  0  0
    7.1127    4.8461   26.4882 C   0  0  0  0  0  0  0  0  0  0  0  0
   10.5309    1.9228   24.2753 C   0  0  0  0  0  0  0  0  0  0  0  0
   10.9077    3.0262   24.6390 O   0  0  0  0  0  0  0  0  0  0  0  0
   11.4369    0.9592   23.5561 C   0  0  0  0  0  0  0  0  0  0  0  0
   12.8049    1.2412   23.5195 C   0  0  0  0  0  0  0  0  0  0  0  0
   13.6867    0.3951   22.8730 C   0  0  0  0  0  0  0  0  0  0  0  0
   13.1658   -0.7472   22.2713 C   0  0  0  0  0  0  0  0  0  0  0  0
   14.0029   -1.5786   21.6272 F   0  0  0  0  0  0  0  0  0  0  0  0
   11.8204   -1.0560   22.2887 C   0  0  0  0  0  0  0  0  0  0  0  0
   10.9267   -0.1905   22.9290 C   0  0  0  0  0  0  0  0  0  0  0  0
    8.5956   -3.8001   23.2930 H   0  0  0  0  0  0  0  0  0  0  0  0
    9.8079   -2.8635   24.1776 H   0  0  0  0  0  0  0  0  0  0  0  0
    8.0971   -2.5081   24.3893 H   0  0  0  0  0  0  0  0  0  0  0  0
    9.5721   -2.1994   21.7342 H   0  0  0  0  0  0  0  0  0  0  0  0
    6.7440   -1.5310   22.5440 H   0  0  0  0  0  0  0  0  0  0  0  0
    7.3290   -2.3189   21.0676 H   0  0  0  0  0  0  0  0  0  0  0  0
    8.0705   -0.6310   18.5690 H   0  0  0  0  0  0  0  0  0  0  0  0
    4.8741    1.5827   17.1917 H   0  0  0  0  0  0  0  0  0  0  0  0
    3.3469    2.7839   18.7643 H   0  0  0  0  0  0  0  0  0  0  0  0
    2.6875    3.3335   21.0866 H   0  0  0  0  0  0  0  0  0  0  0  0
    3.9914    2.4305   23.0039 H   0  0  0  0  0  0  0  0  0  0  0  0
    5.9511    0.9981   22.6103 H   0  0  0  0  0  0  0  0  0  0  0  0
    9.1732   -0.5473   25.0223 H   0  0  0  0  0  0  0  0  0  0  0  0
    7.7518    0.1043   24.1662 H   0  0  0  0  0  0  0  0  0  0  0  0
    7.6094    1.6715   25.7506 H   0  0  0  0  0  0  0  0  0  0  0  0
    8.9651    2.7307   26.1572 H   0  0  0  0  0  0  0  0  0  0  0  0
    6.6469    4.7692   21.8819 H   0  0  0  0  0  0  0  0  0  0  0  0
    6.0902    6.1751   24.1986 H   0  0  0  0  0  0  0  0  0  0  0  0
    8.1032    5.1184   26.8686 H   0  0  0  0  0  0  0  0  0  0  0  0
    6.4495    5.6979   26.6234 H   0  0  0  0  0  0  0  0  0  0  0  0
    6.7211    4.0192   27.0888 H   0  0  0  0  0  0  0  0  0  0  0  0
   13.1694    2.1374   24.0087 H   0  0  0  0  0  0  0  0  0  0  0  0
   14.7536    0.5995   22.8128 H   0  0  0  0  0  0  0  0  0  0  0  0
   11.4907   -1.9697   21.8035 H   0  0  0  0  0  0  0  0  0  0  0  0
  1  2  1  0
  2  3  1  0
  3  4  1  0
  4  5  1  0
  5  6  2  0
  6  7  1  0
  7  8  2  0
  8  9  1  0
  9 10  2  0
 10 11  1  0
 11 12  2  0
 12 13  1  0
 13 14  2  0
  4 15  1  0
 15 16  2  0
 15 17  1  0
 17 18  1  1
 18 19  1  0
 19 20  1  0
 20 21  1  0
 21 22  2  0
 22 23  1  0
 23 24  2  0
 24 25  1  0
 25 26  1  0
 19 27  1  0
 27 28  2  0
 27 29  1  0
 29 30  2  0
 30 31  1  0
 31 32  2  0
 32 33  1  0
 32 34  1  0
 34 35  2  0
 17  2  1  0
 25 21  1  0
 35 29  1  0
 14  5  1  0
 35 17  1  0
 14  9  1  0
  1 36  1  0
  1 37  1  0
  1 38  1  0
  2 39  1  6
  3 40  1  0
  3 41  1  0
  6 42  1  0
  8 43  1  0
 10 44  1  0
 11 45  1  0
 12 46  1  0
 13 47  1  0
 18 48  1  0
 18 49  1  0
 20 50  1  0
 20 51  1  0
 23 52  1  0
 24 53  1  0
 26 54  1  0
 26 55  1  0
 26 56  1  0
 30 57  1  0
 31 58  1  0
 34 59  1  0
M  END
$$$$
