
     RDKit          3D

 72 77  0  0  0  0  0  0  0  0999 V2000
    7.2652    4.5483   22.4836 C   0  0  0  0  0  0  0  0  0  0  0  0
    8.1303    3.6155   23.2270 N   0  0  0  0  0  4  0  0  0  0  0  0
    7.6514    3.3799   24.6109 C   0  0  0  0  0  0  0  0  0  0  0  0
    8.4298    2.2959   25.3970 C   0  0  0  0  0  0  0  0  0  0  0  0
    9.2787    1.4308   24.5975 N   0  0  0  0  0  0  0  0  0  0  0  0
    8.8437    0.0900   24.2551 C   0  0  0  0  0  0  0  0  0  0  0  0
    9.3943   -0.3604   22.8721 C   0  0  2  0  0  0  0  0  0  0  0  0
    8.7065    0.4834   21.7748 C   0  0  0  0  0  0  0  0  0  0  0  0
    8.8890    1.6745   21.5385 O   0  0  0  0  0  0  0  0  0  0  0  0
    7.7625   -0.2784   21.1492 N   0  0  0  0  0  0  0  0  0  0  0  0
    6.9361    0.2504   20.1223 C   0  0  0  0  0  0  0  0  0  0  0  0
    7.2170   -0.0235   18.8073 C   0  0  0  0  0  0  0  0  0  0  0  0
    6.5035    0.4506   17.7545 N   0  0  0  0  0  0  0  0  0  0  0  0
    5.4730    1.2143   18.0328 C   0  0  0  0  0  0  0  0  0  0  0  0
    5.0670    1.5716   19.3511 C   0  0  0  0  0  0  0  0  0  0  0  0
    3.9354    2.3966   19.5961 C   0  0  0  0  0  0  0  0  0  0  0  0
    3.5653    2.7069   20.8745 C   0  0  0  0  0  0  0  0  0  0  0  0
    4.3066    2.2177   21.9728 C   0  0  0  0  0  0  0  0  0  0  0  0
    5.4114    1.4273   21.7637 C   0  0  0  0  0  0  0  0  0  0  0  0
    5.8200    1.0812   20.4426 C   0  0  0  0  0  0  0  0  0  0  0  0
    7.5429   -1.5523   21.7994 C   0  0  0  0  0  0  0  0  0  0  0  0
    8.9022   -1.7768   22.4781 C   0  0  2  0  0  0  0  0  0  0  0  0
    8.8682   -2.8123   23.5900 C   0  0  0  0  0  0  0  0  0  0  0  0
    8.5210   -4.0724   23.0524 O   0  0  0  0  0  0  0  0  0  0  0  0
    7.3383   -4.6418   23.5869 C   0  0  0  0  0  0  0  0  0  0  0  0
    7.1133   -5.9394   22.8387 C   0  0  0  0  0  0  0  0  0  0  0  0
    5.7733   -6.6005   23.1970 C   0  0  0  0  0  0  0  0  0  0  0  0
    5.1016   -6.3470   21.4947 S   0  0  0  0  0  0  0  0  0  0  0  0
    6.8873   -4.4535   20.8301 O   0  0  0  0  0  0  0  0  0  0  0  0
    5.0126   -7.5849   20.6727 O   0  0  0  0  0  0  0  0  0  0  0  0
    6.8186   -5.7483   21.3267 C   0  0  0  0  0  0  0  0  0  0  0  0
   10.8980   -0.1598   22.8923 C   0  0  0  0  0  0  0  0  0  0  0  0
   11.8102   -1.0230   22.2666 C   0  0  0  0  0  0  0  0  0  0  0  0
   13.1611   -0.7239   22.2725 C   0  0  0  0  0  0  0  0  0  0  0  0
   14.2753   -1.8127   21.4920 Cl  0  0  0  0  0  0  0  0  0  0  0  0
   13.6608    0.4255   22.8822 C   0  0  0  0  0  0  0  0  0  0  0  0
   12.7697    1.2764   23.5048 C   0  0  0  0  0  0  0  0  0  0  0  0
   11.4084    0.9834   23.5272 C   0  0  0  0  0  0  0  0  0  0  0  0
   10.4972    1.9227   24.2526 C   0  0  0  0  0  0  0  0  0  0  0  0
   10.8075    3.0862   24.5054 O   0  0  0  0  0  0  0  0  0  0  0  0
    7.5782    4.6051   21.4391 H   0  0  0  0  0  0  0  0  0  0  0  0
    6.2306    4.1931   22.5141 H   0  0  0  0  0  0  0  0  0  0  0  0
    7.2873    5.5505   22.9221 H   0  0  0  0  0  0  0  0  0  0  0  0
    9.1026    3.9572   23.2527 H   0  0  0  0  0  0  0  0  0  0  0  0
    8.1672    2.7274   22.7038 H   0  0  0  0  0  0  0  0  0  0  0  0
    6.5904    3.1114   24.5591 H   0  0  0  0  0  0  0  0  0  0  0  0
    7.6983    4.3199   25.1730 H   0  0  0  0  0  0  0  0  0  0  0  0
    7.7130    1.6690   25.9387 H   0  0  0  0  0  0  0  0  0  0  0  0
    9.0632    2.7727   26.1510 H   0  0  0  0  0  0  0  0  0  0  0  0
    7.7474    0.0880   24.2493 H   0  0  0  0  0  0  0  0  0  0  0  0
    9.1883   -0.6169   25.0208 H   0  0  0  0  0  0  0  0  0  0  0  0
    8.0782   -0.6425   18.5572 H   0  0  0  0  0  0  0  0  0  0  0  0
    4.8893    1.5885   17.1907 H   0  0  0  0  0  0  0  0  0  0  0  0
    3.3786    2.7700   18.7403 H   0  0  0  0  0  0  0  0  0  0  0  0
    2.6995    3.3372   21.0568 H   0  0  0  0  0  0  0  0  0  0  0  0
    4.0122    2.4829   22.9862 H   0  0  0  0  0  0  0  0  0  0  0  0
    5.9694    1.0521   22.6175 H   0  0  0  0  0  0  0  0  0  0  0  0
    7.2491   -2.2971   21.0589 H   0  0  0  0  0  0  0  0  0  0  0  0
    6.7279   -1.5065   22.5440 H   0  0  0  0  0  0  0  0  0  0  0  0
    9.5655   -2.1408   21.6913 H   0  0  0  0  0  0  0  0  0  0  0  0
    8.1438   -2.5185   24.3655 H   0  0  0  0  0  0  0  0  0  0  0  0
    9.8525   -2.8848   24.0725 H   0  0  0  0  0  0  0  0  0  0  0  0
    7.4386   -4.8409   24.6675 H   0  0  0  0  0  0  0  0  0  0  0  0
    6.4863   -3.9488   23.4573 H   0  0  0  0  0  0  0  0  0  0  0  0
    7.9822   -6.5906   22.9738 H   0  0  0  0  0  0  0  0  0  0  0  0
    5.1651   -6.0448   23.9147 H   0  0  0  0  0  0  0  0  0  0  0  0
    5.8007   -7.6478   23.4811 H   0  0  0  0  0  0  0  0  0  0  0  0
    7.7544   -4.1211   21.1318 H   0  0  0  0  0  0  0  0  0  0  0  0
    7.3430   -6.4697   20.6919 H   0  0  0  0  0  0  0  0  0  0  0  0
   11.4923   -1.9340   21.7729 H   0  0  0  0  0  0  0  0  0  0  0  0
   14.7259    0.6337   22.8674 H   0  0  0  0  0  0  0  0  0  0  0  0
   13.1110    2.1831   23.9917 H   0  0  0  0  0  0  0  0  0  0  0  0
  1  2  1  0
  2  3  1  0
  3  4  1  0
  4  5  1  0
  5  6  1  0
  7  6  1  1
  7  8  1  0
  8  9  2  0
  8 10  1  0
 10 11  1  0
 11 12  2  0
 12 13  1  0
 13 14  2  0
 14 15  1  0
 15 16  2  0
 16 17  1  0
 17 18  2  0
 18 19  1  0
 19 20  2  0
 10 21  1  0
 21 22  1  0
 22 23  1  0
 23 24  1  0
 24 25  1  0
 25 26  1  0
 26 27  1  0
 27 28  1  0
 28 29  2  0
 28 30  2  0
 28 31  1  0
  7 32  1  0
 32 33  2  0
 33 34  1  0
 34 35  1  0
 34 36  2  0
 36 37  1  0
 37 38  2  0
 38 39  1  0
 39 40  2  0
 39  5  1  0
 22  7  1  0
 31 26  1  0
 38 32  1  0
 20 11  1  0
 20 15  1  0
  1 41  1  0
  1 42  1  0
  1 43  1  0
  2 44  1  0
  2 45  1  0
  3 46  1  0
  3 47  1  0
  4 48  1  0
  4 49  1  0
  6 50  1  0
  6 51  1  0
 12 52  1  0
 14 53  1  0
 16 54  1  0
 17 55  1  0
 18 56  1  0
 19 57  1  0
 21 58  1  0
 21 59  1  0
 22 60  1  6
 23 61  1  0
 23 62  1  0
 25 63  1  0
 25 64  1  0
 26 65  1  0
 27 66  1  0
 27 67  1  0
 31 68  1  0
 31 69  1  0
 33 70  1  0
 36 71  1  0
 37 72  1  0
M  CHG  1   2   1
M  END
$$$$
