
     RDKit          3D

 66 70  0  0  0  0  0  0  0  0999 V2000
    7.1707    4.6483   22.5725 C   0  0  0  0  0  0  0  0  0  0  0  0
    7.9525    3.7016   23.3382 N   0  0  0  0  0  0  0  0  0  0  0  0
    7.6464    3.4570   24.6302 C   0  0  0  0  0  0  0  0  0  0  0  0
    6.7952    4.0766   25.2506 O   0  0  0  0  0  0  0  0  0  0  0  0
    8.3946    2.3138   25.3243 C   0  0  0  0  0  0  0  0  0  0  0  0
    9.2541    1.4921   24.4970 N   0  0  0  0  0  0  0  0  0  0  0  0
    8.8473    0.1300   24.2107 C   0  0  0  0  0  0  0  0  0  0  0  0
    9.4282   -0.3672   22.8611 C   0  0  2  0  0  0  0  0  0  0  0  0
    8.8174    0.4603   21.7037 C   0  0  0  0  0  0  0  0  0  0  0  0
    9.1542    1.5659   21.3282 O   0  0  0  0  0  0  0  0  0  0  0  0
    7.7808   -0.2680   21.1587 N   0  0  0  0  0  0  0  0  0  0  0  0
    6.9420    0.2629   20.1408 C   0  0  0  0  0  0  0  0  0  0  0  0
    7.2124   -0.0138   18.8258 C   0  0  0  0  0  0  0  0  0  0  0  0
    6.4866    0.4438   17.7735 N   0  0  0  0  0  0  0  0  0  0  0  0
    5.4498    1.2042   18.0404 C   0  0  0  0  0  0  0  0  0  0  0  0
    5.0348    1.5543   19.3586 C   0  0  0  0  0  0  0  0  0  0  0  0
    3.9064    2.3859   19.6100 C   0  0  0  0  0  0  0  0  0  0  0  0
    3.5428    2.6897   20.8945 C   0  0  0  0  0  0  0  0  0  0  0  0
    4.2780    2.1778   21.9898 C   0  0  0  0  0  0  0  0  0  0  0  0
    5.3794    1.3876   21.7729 C   0  0  0  0  0  0  0  0  0  0  0  0
    5.7942    1.0614   20.4508 C   0  0  0  0  0  0  0  0  0  0  0  0
    7.5675   -1.5495   21.8095 C   0  0  0  0  0  0  0  0  0  0  0  0
    8.9167   -1.7854   22.5074 C   0  0  2  0  0  0  0  0  0  0  0  0
    8.8879   -2.7945   23.6529 C   0  0  0  0  0  0  0  0  0  0  0  0
    8.6757   -4.0971   23.1597 O   0  0  0  0  0  0  0  0  0  0  0  0
    7.3784   -4.6333   23.3708 C   0  0  0  0  0  0  0  0  0  0  0  0
    7.2970   -5.3180   24.7268 C   0  0  0  0  0  0  0  0  0  0  0  0
    7.0855   -5.5940   22.2339 C   0  0  0  0  0  0  0  0  0  0  0  0
   10.9286   -0.1878   22.9294 C   0  0  0  0  0  0  0  0  0  0  0  0
   11.8224   -1.0532   22.2865 C   0  0  0  0  0  0  0  0  0  0  0  0
   13.1726   -0.7516   22.2550 C   0  0  0  0  0  0  0  0  0  0  0  0
   14.2503   -1.8162   21.3959 Cl  0  0  0  0  0  0  0  0  0  0  0  0
   13.6832    0.3945   22.8689 C   0  0  0  0  0  0  0  0  0  0  0  0
   12.8057    1.2413   23.5227 C   0  0  0  0  0  0  0  0  0  0  0  0
   11.4398    0.9577   23.5616 C   0  0  0  0  0  0  0  0  0  0  0  0
   10.5356    1.9185   24.2804 C   0  0  0  0  0  0  0  0  0  0  0  0
   10.9032    3.0298   24.6356 O   0  0  0  0  0  0  0  0  0  0  0  0
    7.1812    5.6460   23.0234 H   0  0  0  0  0  0  0  0  0  0  0  0
    7.5894    4.6988   21.5651 H   0  0  0  0  0  0  0  0  0  0  0  0
    6.1294    4.3155   22.4970 H   0  0  0  0  0  0  0  0  0  0  0  0
    8.7698    3.2948   22.9069 H   0  0  0  0  0  0  0  0  0  0  0  0
    7.6265    1.6743   25.7712 H   0  0  0  0  0  0  0  0  0  0  0  0
    8.9717    2.7376   26.1533 H   0  0  0  0  0  0  0  0  0  0  0  0
    9.1733   -0.5360   25.0243 H   0  0  0  0  0  0  0  0  0  0  0  0
    7.7530    0.1034   24.1687 H   0  0  0  0  0  0  0  0  0  0  0  0
    8.0706   -0.6307   18.5676 H   0  0  0  0  0  0  0  0  0  0  0  0
    4.8746    1.5820   17.1921 H   0  0  0  0  0  0  0  0  0  0  0  0
    3.3475    2.7834   18.7638 H   0  0  0  0  0  0  0  0  0  0  0  0
    2.6895    3.3340   21.0906 H   0  0  0  0  0  0  0  0  0  0  0  0
    3.9959    2.4392   23.0079 H   0  0  0  0  0  0  0  0  0  0  0  0
    5.9502    1.0038   22.6150 H   0  0  0  0  0  0  0  0  0  0  0  0
    7.3256   -2.3192   21.0712 H   0  0  0  0  0  0  0  0  0  0  0  0
    6.7401   -1.5258   22.5422 H   0  0  0  0  0  0  0  0  0  0  0  0
    9.5701   -2.2083   21.7451 H   0  0  0  0  0  0  0  0  0  0  0  0
    9.8491   -2.7793   24.1901 H   0  0  0  0  0  0  0  0  0  0  0  0
    8.1053   -2.5136   24.3756 H   0  0  0  0  0  0  0  0  0  0  0  0
    6.6456   -3.8150   23.3357 H   0  0  0  0  0  0  0  0  0  0  0  0
    6.3004   -5.7440   24.8821 H   0  0  0  0  0  0  0  0  0  0  0  0
    7.5027   -4.6184   25.5421 H   0  0  0  0  0  0  0  0  0  0  0  0
    8.0345   -6.1238   24.7797 H   0  0  0  0  0  0  0  0  0  0  0  0
    6.0756   -6.0066   22.3383 H   0  0  0  0  0  0  0  0  0  0  0  0
    7.1507   -5.0839   21.2677 H   0  0  0  0  0  0  0  0  0  0  0  0
    7.7980   -6.4249   22.2338 H   0  0  0  0  0  0  0  0  0  0  0  0
   11.4765   -1.9637   21.8068 H   0  0  0  0  0  0  0  0  0  0  0  0
   14.7472    0.6118   22.8144 H   0  0  0  0  0  0  0  0  0  0  0  0
   13.1677    2.1400   24.0119 H   0  0  0  0  0  0  0  0  0  0  0  0
  1  2  1  0
  2  3  1  0
  3  4  2  0
  3  5  1  0
  5  6  1  0
  6  7  1  0
  8  7  1  1
  8  9  1  0
  9 10  2  0
  9 11  1  0
 11 12  1  0
 12 13  2  0
 13 14  1  0
 14 15  2  0
 15 16  1  0
 16 17  2  0
 17 18  1  0
 18 19  2  0
 19 20  1  0
 20 21  2  0
 11 22  1  0
 22 23  1  0
 23 24  1  0
 24 25  1  0
 25 26  1  0
 26 27  1  0
 26 28  1  0
  8 29  1  0
 29 30  2  0
 30 31  1  0
 31 32  1  0
 31 33  2  0
 33 34  1  0
 34 35  2  0
 35 36  1  0
 36 37  2  0
 36  6  1  0
 23  8  1  0
 35 29  1  0
 21 12  1  0
 21 16  1  0
  1 38  1  0
  1 39  1  0
  1 40  1  0
  2 41  1  0
  5 42  1  0
  5 43  1  0
  7 44  1  0
  7 45  1  0
 13 46  1  0
 15 47  1  0
 17 48  1  0
 18 49  1  0
 19 50  1  0
 20 51  1  0
 22 52  1  0
 22 53  1  0
 23 54  1  6
 24 55  1  0
 24 56  1  0
 26 57  1  0
 27 58  1  0
 27 59  1  0
 27 60  1  0
 28 61  1  0
 28 62  1  0
 28 63  1  0
 30 64  1  0
 33 65  1  0
 34 66  1  0
M  END
$$$$
