
     RDKit          3D

 65 70  0  0  0  0  0  0  0  0999 V2000
    6.5049    3.2637   25.2485 O   0  0  0  0  0  0  0  0  0  0  0  0
    7.6226    3.1062   24.7930 C   0  0  0  0  0  0  0  0  0  0  0  0
    8.6943    2.2838   25.5180 C   0  0  0  0  0  0  0  0  0  0  0  0
    9.5448    1.5059   24.5676 N   0  0  1  0  0  4  0  0  0  0  0  0
   10.9615    1.3492   25.0268 C   0  0  0  0  0  0  0  0  0  0  0  0
   11.7781    0.6273   23.9801 C   0  0  0  0  0  0  0  0  0  0  0  0
   13.1529    0.8533   23.9362 C   0  0  0  0  0  0  0  0  0  0  0  0
   13.9606    0.2230   23.0028 C   0  0  0  0  0  0  0  0  0  0  0  0
   13.3630   -0.6508   22.1015 C   0  0  0  0  0  0  0  0  0  0  0  0
   14.3554   -1.4410   20.9081 Cl  0  0  0  0  0  0  0  0  0  0  0  0
   11.9961   -0.8842   22.1161 C   0  0  0  0  0  0  0  0  0  0  0  0
   11.1815   -0.2511   23.0627 C   0  0  0  0  0  0  0  0  0  0  0  0
    9.6725   -0.4202   22.9849 C   0  0  2  0  0  0  0  0  0  0  0  0
    9.1612   -1.8436   22.7076 C   0  0  0  0  0  0  0  0  0  0  0  0
    7.8231   -1.6384   21.9852 C   0  0  0  0  0  0  0  0  0  0  0  0
    8.0074   -0.3619   21.3077 N   0  0  0  0  0  0  0  0  0  0  0  0
    7.1623    0.1102   20.2613 C   0  0  0  0  0  0  0  0  0  0  0  0
    7.4740   -0.1972   18.9635 C   0  0  0  0  0  0  0  0  0  0  0  0
    6.7429    0.1745   17.8801 N   0  0  0  0  0  0  0  0  0  0  0  0
    5.6581    0.8800   18.1012 C   0  0  0  0  0  0  0  0  0  0  0  0
    5.2032    1.2653   19.3951 C   0  0  0  0  0  0  0  0  0  0  0  0
    4.0367    2.0595   19.5843 C   0  0  0  0  0  0  0  0  0  0  0  0
    3.6286    2.4038   20.8434 C   0  0  0  0  0  0  0  0  0  0  0  0
    4.3564    1.9628   21.9733 C   0  0  0  0  0  0  0  0  0  0  0  0
    5.4946    1.2093   21.8182 C   0  0  0  0  0  0  0  0  0  0  0  0
    5.9635    0.8525   20.5233 C   0  0  0  0  0  0  0  0  0  0  0  0
    9.0766    0.3583   21.7916 C   0  0  0  0  0  0  0  0  0  0  0  0
    9.4177    1.4607   21.4152 O   0  0  0  0  0  0  0  0  0  0  0  0
    8.9850    0.1287   24.2565 C   0  0  0  0  0  0  0  0  0  0  0  0
    8.0530    3.5985   23.5795 N   0  0  0  0  0  0  0  0  0  0  0  0
    7.1926    4.4284   22.7579 C   0  0  0  0  0  0  0  0  0  0  0  0
    7.1548    5.8817   23.2021 C   0  0  1  0  0  0  0  0  0  0  0  0
    6.4873    6.8409   22.1957 C   0  0  0  0  0  0  0  0  0  0  0  0
    5.4254    7.1957   23.2433 C   0  0  1  0  0  0  0  0  0  0  0  0
    4.1389    6.8297   22.8829 F   0  0  0  0  0  0  0  0  0  0  0  0
    6.0790    6.2482   24.2562 C   0  0  0  0  0  0  0  0  0  0  0  0
    9.3295    2.9614   26.1047 H   0  0  0  0  0  0  0  0  0  0  0  0
    8.1930    1.6262   26.2329 H   0  0  0  0  0  0  0  0  0  0  0  0
    9.5615    2.0023   23.6453 H   0  0  0  0  0  0  0  0  0  0  0  0
   10.9827    0.8014   25.9845 H   0  0  0  0  0  0  0  0  0  0  0  0
   11.3924    2.3383   25.2168 H   0  0  0  0  0  0  0  0  0  0  0  0
   13.5979    1.5479   24.6447 H   0  0  0  0  0  0  0  0  0  0  0  0
   15.0250    0.4308   22.9547 H   0  0  0  0  0  0  0  0  0  0  0  0
   11.5777   -1.5573   21.3745 H   0  0  0  0  0  0  0  0  0  0  0  0
    9.8536   -2.3911   22.0659 H   0  0  0  0  0  0  0  0  0  0  0  0
    9.0646   -2.4224   23.6300 H   0  0  0  0  0  0  0  0  0  0  0  0
    6.9900   -1.6181   22.7053 H   0  0  0  0  0  0  0  0  0  0  0  0
    7.6181   -2.4257   21.2575 H   0  0  0  0  0  0  0  0  0  0  0  0
    8.3758   -0.7694   18.7545 H   0  0  0  0  0  0  0  0  0  0  0  0
    5.0764    1.1849   17.2282 H   0  0  0  0  0  0  0  0  0  0  0  0
    3.4855    2.4018   18.7091 H   0  0  0  0  0  0  0  0  0  0  0  0
    2.7500    3.0274   20.9917 H   0  0  0  0  0  0  0  0  0  0  0  0
    4.0324    2.2503   22.9713 H   0  0  0  0  0  0  0  0  0  0  0  0
    6.0551    0.8917   22.6941 H   0  0  0  0  0  0  0  0  0  0  0  0
    7.9049    0.2174   24.1115 H   0  0  0  0  0  0  0  0  0  0  0  0
    9.1513   -0.5359   25.1147 H   0  0  0  0  0  0  0  0  0  0  0  0
    9.0335    3.8341   23.4856 H   0  0  0  0  0  0  0  0  0  0  0  0
    6.1901    3.9976   22.7741 H   0  0  0  0  0  0  0  0  0  0  0  0
    7.5448    4.3560   21.7208 H   0  0  0  0  0  0  0  0  0  0  0  0
    8.1558    6.2131   23.4912 H   0  0  0  0  0  0  0  0  0  0  0  0
    7.1117    7.6741   21.8658 H   0  0  0  0  0  0  0  0  0  0  0  0
    6.0664    6.3466   21.3170 H   0  0  0  0  0  0  0  0  0  0  0  0
    5.3851    8.2451   23.5365 H   0  0  0  0  0  0  0  0  0  0  0  0
    5.4320    5.4251   24.5577 H   0  0  0  0  0  0  0  0  0  0  0  0
    6.4599    6.7291   25.1618 H   0  0  0  0  0  0  0  0  0  0  0  0
  1  2  2  0
  2  3  1  0
  3  4  1  0
  4  5  1  0
  5  6  1  0
  6  7  2  0
  7  8  1  0
  8  9  2  0
  9 10  1  0
  9 11  1  0
 11 12  2  0
 12 13  1  0
 13 14  1  6
 14 15  1  0
 15 16  1  0
 16 17  1  0
 17 18  2  0
 18 19  1  0
 19 20  2  0
 20 21  1  0
 21 22  2  0
 22 23  1  0
 23 24  2  0
 24 25  1  0
 25 26  2  0
 16 27  1  0
 27 28  2  0
 13 29  1  0
  2 30  1  0
 30 31  1  0
 31 32  1  0
 32 33  1  0
 33 34  1  0
 34 35  1  0
 34 36  1  0
 29  4  1  0
 36 32  1  0
 12  6  1  0
 27 13  1  0
 26 17  1  0
 26 21  1  0
  3 37  1  0
  3 38  1  0
  4 39  1  6
  5 40  1  0
  5 41  1  0
  7 42  1  0
  8 43  1  0
 11 44  1  0
 14 45  1  0
 14 46  1  0
 15 47  1  0
 15 48  1  0
 18 49  1  0
 20 50  1  0
 22 51  1  0
 23 52  1  0
 24 53  1  0
 25 54  1  0
 29 55  1  0
 29 56  1  0
 30 57  1  0
 31 58  1  0
 31 59  1  0
 32 60  1  1
 33 61  1  0
 33 62  1  0
 34 63  1  1
 36 64  1  0
 36 65  1  0
M  CHG  1   4   1
M  END
$$$$
