
     RDKit          3D

 68 73  0  0  0  0  0  0  0  0999 V2000
    7.1689    4.6498   22.5666 C   0  0  0  0  0  0  0  0  0  0  0  0
    7.9605    3.7080   23.3358 N   0  0  0  0  0  0  0  0  0  0  0  0
    7.6491    3.4510   24.6236 C   0  0  0  0  0  0  0  0  0  0  0  0
    6.7917    4.0704   25.2426 O   0  0  0  0  0  0  0  0  0  0  0  0
    8.4047    2.3102   25.3235 C   0  0  0  0  0  0  0  0  0  0  0  0
    9.2644    1.4817   24.5050 N   0  0  0  0  0  0  0  0  0  0  0  0
    8.8488    0.1222   24.2136 C   0  0  0  0  0  0  0  0  0  0  0  0
    9.4273   -0.3691   22.8632 C   0  0  2  0  0  0  0  0  0  0  0  0
    8.8100    0.4568   21.7009 C   0  0  0  0  0  0  0  0  0  0  0  0
    9.1412    1.5623   21.3165 O   0  0  0  0  0  0  0  0  0  0  0  0
    7.7708   -0.2749   21.1638 N   0  0  0  0  0  0  0  0  0  0  0  0
    6.9427    0.2623   20.1416 C   0  0  0  0  0  0  0  0  0  0  0  0
    7.2180   -0.0101   18.8274 C   0  0  0  0  0  0  0  0  0  0  0  0
    6.4897    0.4453   17.7741 N   0  0  0  0  0  0  0  0  0  0  0  0
    5.4527    1.2018   18.0467 C   0  0  0  0  0  0  0  0  0  0  0  0
    5.0421    1.5590   19.3653 C   0  0  0  0  0  0  0  0  0  0  0  0
    3.9103    2.3831   19.6123 C   0  0  0  0  0  0  0  0  0  0  0  0
    3.5394    2.6866   20.8941 C   0  0  0  0  0  0  0  0  0  0  0  0
    4.2765    2.1796   21.9897 C   0  0  0  0  0  0  0  0  0  0  0  0
    5.3810    1.3923   21.7750 C   0  0  0  0  0  0  0  0  0  0  0  0
    5.8023    1.0697   20.4549 C   0  0  0  0  0  0  0  0  0  0  0  0
    7.5617   -1.5632   21.8022 C   0  0  0  0  0  0  0  0  0  0  0  0
    8.9157   -1.7938   22.4954 C   0  0  2  0  0  0  0  0  0  0  0  0
    8.8801   -2.8179   23.6470 C   0  0  0  0  0  0  0  0  0  0  0  0
    8.6407   -4.1874   23.2534 N   0  0  0  0  0  0  0  0  0  0  0  0
    7.3594   -4.6859   23.0713 C   0  0  0  0  0  0  0  0  0  0  0  0
    7.0076   -5.9070   22.4305 C   0  0  0  0  0  0  0  0  0  0  0  0
    5.6985   -6.1241   22.4852 N   0  0  0  0  0  0  0  0  0  0  0  0
    5.1914   -5.0869   23.1515 N   0  0  0  0  0  0  0  0  0  0  0  0
    3.7664   -4.9673   23.3634 C   0  0  0  0  0  0  0  0  0  0  0  0
    6.1491   -4.1911   23.5232 C   0  0  0  0  0  0  0  0  0  0  0  0
   10.9298   -0.1839   22.9226 C   0  0  0  0  0  0  0  0  0  0  0  0
   11.8262   -1.0502   22.2851 C   0  0  0  0  0  0  0  0  0  0  0  0
   13.1771   -0.7523   22.2528 C   0  0  0  0  0  0  0  0  0  0  0  0
   14.2640   -1.8188   21.4032 Cl  0  0  0  0  0  0  0  0  0  0  0  0
   13.6877    0.3931   22.8657 C   0  0  0  0  0  0  0  0  0  0  0  0
   12.8106    1.2378   23.5200 C   0  0  0  0  0  0  0  0  0  0  0  0
   11.4469    0.9546   23.5594 C   0  0  0  0  0  0  0  0  0  0  0  0
   10.5461    1.9093   24.2899 C   0  0  0  0  0  0  0  0  0  0  0  0
   10.9128    3.0205   24.6553 O   0  0  0  0  0  0  0  0  0  0  0  0
    6.1261    4.3117   22.4955 H   0  0  0  0  0  0  0  0  0  0  0  0
    7.1770    5.6472   23.0217 H   0  0  0  0  0  0  0  0  0  0  0  0
    7.5953    4.6986   21.5605 H   0  0  0  0  0  0  0  0  0  0  0  0
    8.7328    3.2398   22.8818 H   0  0  0  0  0  0  0  0  0  0  0  0
    7.6297    1.6839   25.7744 H   0  0  0  0  0  0  0  0  0  0  0  0
    8.9874    2.7571   26.1365 H   0  0  0  0  0  0  0  0  0  0  0  0
    7.7534    0.1128   24.1732 H   0  0  0  0  0  0  0  0  0  0  0  0
    9.1765   -0.5530   25.0173 H   0  0  0  0  0  0  0  0  0  0  0  0
    8.0740   -0.6345   18.5775 H   0  0  0  0  0  0  0  0  0  0  0  0
    4.8838    1.5738   17.1941 H   0  0  0  0  0  0  0  0  0  0  0  0
    3.3629    2.7720   18.7564 H   0  0  0  0  0  0  0  0  0  0  0  0
    2.6879    3.3353   21.0840 H   0  0  0  0  0  0  0  0  0  0  0  0
    3.9923    2.4457   23.0061 H   0  0  0  0  0  0  0  0  0  0  0  0
    5.9490    1.0082   22.6179 H   0  0  0  0  0  0  0  0  0  0  0  0
    6.7318   -1.5317   22.5294 H   0  0  0  0  0  0  0  0  0  0  0  0
    7.3055   -2.3317   21.0669 H   0  0  0  0  0  0  0  0  0  0  0  0
    9.5953   -2.1548   21.7156 H   0  0  0  0  0  0  0  0  0  0  0  0
    9.8444   -2.7861   24.1693 H   0  0  0  0  0  0  0  0  0  0  0  0
    8.0923   -2.5341   24.3636 H   0  0  0  0  0  0  0  0  0  0  0  0
    9.3683   -4.6517   22.7255 H   0  0  0  0  0  0  0  0  0  0  0  0
    7.6360   -6.6462   21.9338 H   0  0  0  0  0  0  0  0  0  0  0  0
    3.6040   -4.5083   24.3430 H   0  0  0  0  0  0  0  0  0  0  0  0
    3.3312   -5.9676   23.3343 H   0  0  0  0  0  0  0  0  0  0  0  0
    3.3007   -4.3527   22.5846 H   0  0  0  0  0  0  0  0  0  0  0  0
    5.8799   -3.2891   24.0640 H   0  0  0  0  0  0  0  0  0  0  0  0
   11.4781   -1.9596   21.8103 H   0  0  0  0  0  0  0  0  0  0  0  0
   14.7492    0.6110   22.8190 H   0  0  0  0  0  0  0  0  0  0  0  0
   13.1451    2.1442   24.0120 H   0  0  0  0  0  0  0  0  0  0  0  0
  1  2  1  0
  2  3  1  0
  3  4  2  0
  3  5  1  0
  5  6  1  0
  6  7  1  0
  8  7  1  1
  8  9  1  0
  9 10  2  0
  9 11  1  0
 11 12  1  0
 12 13  2  0
 13 14  1  0
 14 15  2  0
 15 16  1  0
 16 17  2  0
 17 18  1  0
 18 19  2  0
 19 20  1  0
 20 21  2  0
 11 22  1  0
 22 23  1  0
 23 24  1  0
 24 25  1  0
 25 26  1  0
 26 27  1  0
 27 28  2  0
 28 29  1  0
 29 30  1  0
 29 31  1  0
  8 32  1  0
 32 33  2  0
 33 34  1  0
 34 35  1  0
 34 36  2  0
 36 37  1  0
 37 38  2  0
 38 39  1  0
 39 40  2  0
 39  6  1  0
 23  8  1  0
 31 26  2  0
 38 32  1  0
 21 12  1  0
 21 16  1  0
  1 41  1  0
  1 42  1  0
  1 43  1  0
  2 44  1  0
  5 45  1  0
  5 46  1  0
  7 47  1  0
  7 48  1  0
 13 49  1  0
 15 50  1  0
 17 51  1  0
 18 52  1  0
 19 53  1  0
 20 54  1  0
 22 55  1  0
 22 56  1  0
 23 57  1  6
 24 58  1  0
 24 59  1  0
 25 60  1  0
 27 61  1  0
 30 62  1  0
 30 63  1  0
 30 64  1  0
 31 65  1  0
 33 66  1  0
 36 67  1  0
 37 68  1  0
M  END
$$$$
