
     RDKit          3D

 59 63  0  0  0  0  0  0  0  0999 V2000
    7.1680    4.6509   22.5638 C   0  0  0  0  0  0  0  0  0  0  0  0
    7.9642    3.7147   23.3329 N   0  0  0  0  0  0  0  0  0  0  0  0
    7.6516    3.4461   24.6158 C   0  0  0  0  0  0  0  0  0  0  0  0
    6.7987    4.0591   25.2409 O   0  0  0  0  0  0  0  0  0  0  0  0
    8.4104    2.3012   25.3078 C   0  0  0  0  0  0  0  0  0  0  0  0
    9.2751    1.4740   24.4879 N   0  0  0  0  0  0  0  0  0  0  0  0
    8.8651    0.1162   24.1836 C   0  0  0  0  0  0  0  0  0  0  0  0
    9.4411   -0.4041   22.8295 C   0  0  2  0  0  0  0  0  0  0  0  0
    8.8194    0.4325   21.6831 C   0  0  0  0  0  0  0  0  0  0  0  0
    9.1662    1.5374   21.3140 O   0  0  0  0  0  0  0  0  0  0  0  0
    7.7567   -0.2665   21.1627 N   0  0  0  0  0  0  0  0  0  0  0  0
    6.9385    0.2709   20.1345 C   0  0  0  0  0  0  0  0  0  0  0  0
    7.2158   -0.0002   18.8197 C   0  0  0  0  0  0  0  0  0  0  0  0
    6.4863    0.4510   17.7676 N   0  0  0  0  0  0  0  0  0  0  0  0
    5.4470    1.2057   18.0398 C   0  0  0  0  0  0  0  0  0  0  0  0
    5.0413    1.5630   19.3605 C   0  0  0  0  0  0  0  0  0  0  0  0
    3.9093    2.3839   19.6100 C   0  0  0  0  0  0  0  0  0  0  0  0
    3.5384    2.6865   20.8942 C   0  0  0  0  0  0  0  0  0  0  0  0
    4.2751    2.1804   21.9878 C   0  0  0  0  0  0  0  0  0  0  0  0
    5.3819    1.3947   21.7709 C   0  0  0  0  0  0  0  0  0  0  0  0
    5.8004    1.0759   20.4479 C   0  0  0  0  0  0  0  0  0  0  0  0
    7.4837   -1.5122   21.8459 C   0  0  0  0  0  0  0  0  0  0  0  0
    8.8420   -1.8523   22.5276 C   0  0  0  0  0  0  0  0  0  0  0  0
    9.5819   -2.7310   21.5180 C   0  0  0  0  0  0  0  0  0  0  0  0
    8.6735   -2.7150   23.7826 C   0  0  0  0  0  0  0  0  0  0  0  0
   10.9500   -0.1660   22.8850 C   0  0  0  0  0  0  0  0  0  0  0  0
   11.8673   -0.9602   22.1969 C   0  0  0  0  0  0  0  0  0  0  0  0
   13.2206   -0.6868   22.2148 C   0  0  0  0  0  0  0  0  0  0  0  0
   14.3111   -1.7846   21.4090 Cl  0  0  0  0  0  0  0  0  0  0  0  0
   13.7240    0.4194   22.8896 C   0  0  0  0  0  0  0  0  0  0  0  0
   12.8301    1.2406   23.5466 C   0  0  0  0  0  0  0  0  0  0  0  0
   11.4661    0.9514   23.5615 C   0  0  0  0  0  0  0  0  0  0  0  0
   10.5605    1.8962   24.2880 C   0  0  0  0  0  0  0  0  0  0  0  0
   10.9288    3.0025   24.6591 O   0  0  0  0  0  0  0  0  0  0  0  0
    7.5951    4.7005   21.5596 H   0  0  0  0  0  0  0  0  0  0  0  0
    7.1761    5.6469   23.0194 H   0  0  0  0  0  0  0  0  0  0  0  0
    6.1263    4.3104   22.4942 H   0  0  0  0  0  0  0  0  0  0  0  0
    8.7136    3.2171   22.8691 H   0  0  0  0  0  0  0  0  0  0  0  0
    8.9972    2.7511   26.1157 H   0  0  0  0  0  0  0  0  0  0  0  0
    7.6392    1.6751   25.7680 H   0  0  0  0  0  0  0  0  0  0  0  0
    7.7727    0.1061   24.1315 H   0  0  0  0  0  0  0  0  0  0  0  0
    9.1932   -0.5644   24.9788 H   0  0  0  0  0  0  0  0  0  0  0  0
    8.0708   -0.6249   18.5695 H   0  0  0  0  0  0  0  0  0  0  0  0
    4.8747    1.5771   17.1887 H   0  0  0  0  0  0  0  0  0  0  0  0
    3.3623    2.7713   18.7562 H   0  0  0  0  0  0  0  0  0  0  0  0
    2.6869    3.3350   21.0825 H   0  0  0  0  0  0  0  0  0  0  0  0
    3.9909    2.4475   23.0043 H   0  0  0  0  0  0  0  0  0  0  0  0
    5.9492    1.0125   22.6129 H   0  0  0  0  0  0  0  0  0  0  0  0
    7.1648   -2.2620   21.1142 H   0  0  0  0  0  0  0  0  0  0  0  0
    6.6630   -1.4082   22.5745 H   0  0  0  0  0  0  0  0  0  0  0  0
    8.9276   -3.5712   21.2696 H   0  0  0  0  0  0  0  0  0  0  0  0
   10.4642   -3.1676   21.9812 H   0  0  0  0  0  0  0  0  0  0  0  0
    9.8447   -2.2062   20.5958 H   0  0  0  0  0  0  0  0  0  0  0  0
    9.6349   -2.7919   24.3033 H   0  0  0  0  0  0  0  0  0  0  0  0
    7.9320   -2.3039   24.4734 H   0  0  0  0  0  0  0  0  0  0  0  0
    8.3647   -3.7306   23.5159 H   0  0  0  0  0  0  0  0  0  0  0  0
   11.5186   -1.7877   21.6202 H   0  0  0  0  0  0  0  0  0  0  0  0
   14.7842    0.6407   22.8789 H   0  0  0  0  0  0  0  0  0  0  0  0
   13.1304    2.1586   24.0367 H   0  0  0  0  0  0  0  0  0  0  0  0
  1  2  1  0
  2  3  1  0
  3  4  2  0
  3  5  1  0
  5  6  1  0
  6  7  1  0
  8  7  1  1
  8  9  1  0
  9 10  2  0
  9 11  1  0
 11 12  1  0
 12 13  2  0
 13 14  1  0
 14 15  2  0
 15 16  1  0
 16 17  2  0
 17 18  1  0
 18 19  2  0
 19 20  1  0
 20 21  2  0
 11 22  1  0
 22 23  1  0
 23 24  1  0
 23 25  1  0
  8 26  1  0
 26 27  2  0
 27 28  1  0
 28 29  1  0
 28 30  2  0
 30 31  1  0
 31 32  2  0
 32 33  1  0
 33 34  2  0
 33  6  1  0
 23  8  1  0
 32 26  1  0
 21 12  1  0
 21 16  1  0
  1 35  1  0
  1 36  1  0
  1 37  1  0
  2 38  1  0
  5 39  1  0
  5 40  1  0
  7 41  1  0
  7 42  1  0
 13 43  1  0
 15 44  1  0
 17 45  1  0
 18 46  1  0
 19 47  1  0
 20 48  1  0
 22 49  1  0
 22 50  1  0
 24 51  1  0
 24 52  1  0
 24 53  1  0
 25 54  1  0
 25 55  1  0
 25 56  1  0
 27 57  1  0
 30 58  1  0
 31 59  1  0
M  END
$$$$
