
     RDKit          3D

 65 70  0  0  0  0  0  0  0  0999 V2000
    7.1691    4.6494   22.5682 C   0  0  0  0  0  0  0  0  0  0  0  0
    7.9576    3.7063   23.3367 N   0  0  0  0  0  0  0  0  0  0  0  0
    7.6499    3.4515   24.6246 C   0  0  0  0  0  0  0  0  0  0  0  0
    6.7918    4.0733   25.2460 O   0  0  0  0  0  0  0  0  0  0  0  0
    8.4020    2.3104   25.3232 C   0  0  0  0  0  0  0  0  0  0  0  0
    9.2614    1.4838   24.5014 N   0  0  0  0  0  0  0  0  0  0  0  0
    8.8477    0.1222   24.2139 C   0  0  0  0  0  0  0  0  0  0  0  0
    9.4252   -0.3760   22.8656 C   0  0  2  0  0  0  0  0  0  0  0  0
    8.8141    0.4553   21.7044 C   0  0  0  0  0  0  0  0  0  0  0  0
    9.1490    1.5606   21.3250 O   0  0  0  0  0  0  0  0  0  0  0  0
    7.7740   -0.2702   21.1619 N   0  0  0  0  0  0  0  0  0  0  0  0
    6.9437    0.2647   20.1406 C   0  0  0  0  0  0  0  0  0  0  0  0
    7.2166   -0.0105   18.8260 C   0  0  0  0  0  0  0  0  0  0  0  0
    6.4888    0.4453   17.7732 N   0  0  0  0  0  0  0  0  0  0  0  0
    5.4514    1.2029   18.0447 C   0  0  0  0  0  0  0  0  0  0  0  0
    5.0397    1.5578   19.3628 C   0  0  0  0  0  0  0  0  0  0  0  0
    3.9092    2.3839   19.6118 C   0  0  0  0  0  0  0  0  0  0  0  0
    3.5407    2.6876   20.8944 C   0  0  0  0  0  0  0  0  0  0  0  0
    4.2774    2.1791   21.9896 C   0  0  0  0  0  0  0  0  0  0  0  0
    5.3808    1.3907   21.7738 C   0  0  0  0  0  0  0  0  0  0  0  0
    5.8002    1.0674   20.4533 C   0  0  0  0  0  0  0  0  0  0  0  0
    7.5572   -1.5549   21.7997 C   0  0  0  0  0  0  0  0  0  0  0  0
    8.9021   -1.7970   22.4973 C   0  0  2  0  0  0  0  0  0  0  0  0
    8.8280   -2.8276   23.6375 C   0  0  0  0  0  0  0  0  0  0  0  0
    8.5560   -4.1848   23.1943 N   0  0  0  0  0  0  0  0  0  0  0  0
    7.3270   -4.7159   23.0545 C   0  0  0  0  0  0  0  0  0  0  0  0
    6.2619   -4.0373   23.5261 N   0  0  0  0  0  0  0  0  0  0  0  0
    5.1090   -4.6750   23.3657 C   0  0  0  0  0  0  0  0  0  0  0  0
    4.9165   -5.8415   22.7575 N   0  0  0  0  0  0  0  0  0  0  0  0
    6.0489   -6.4126   22.3308 C   0  0  0  0  0  0  0  0  0  0  0  0
    7.2701   -5.9261   22.4453 N   0  0  0  0  0  0  0  0  0  0  0  0
   10.9283   -0.1890   22.9266 C   0  0  0  0  0  0  0  0  0  0  0  0
   11.8247   -1.0512   22.2852 C   0  0  0  0  0  0  0  0  0  0  0  0
   13.1753   -0.7517   22.2532 C   0  0  0  0  0  0  0  0  0  0  0  0
   14.2594   -1.8179   21.4013 Cl  0  0  0  0  0  0  0  0  0  0  0  0
   13.6859    0.3935   22.8664 C   0  0  0  0  0  0  0  0  0  0  0  0
   12.8082    1.2386   23.5203 C   0  0  0  0  0  0  0  0  0  0  0  0
   11.4439    0.9545   23.5591 C   0  0  0  0  0  0  0  0  0  0  0  0
   10.5427    1.9111   24.2861 C   0  0  0  0  0  0  0  0  0  0  0  0
   10.9108    3.0227   24.6485 O   0  0  0  0  0  0  0  0  0  0  0  0
    7.1787    5.6465   23.0224 H   0  0  0  0  0  0  0  0  0  0  0  0
    7.5934    4.6987   21.5618 H   0  0  0  0  0  0  0  0  0  0  0  0
    6.1270    4.3127   22.4960 H   0  0  0  0  0  0  0  0  0  0  0  0
    8.7446    3.2570   22.8892 H   0  0  0  0  0  0  0  0  0  0  0  0
    7.6290    1.6804   25.7736 H   0  0  0  0  0  0  0  0  0  0  0  0
    8.9825    2.7507   26.1418 H   0  0  0  0  0  0  0  0  0  0  0  0
    9.1738   -0.5507   25.0207 H   0  0  0  0  0  0  0  0  0  0  0  0
    7.7526    0.1102   24.1698 H   0  0  0  0  0  0  0  0  0  0  0  0
    8.0730   -0.6328   18.5734 H   0  0  0  0  0  0  0  0  0  0  0  0
    4.8803    1.5767   17.1934 H   0  0  0  0  0  0  0  0  0  0  0  0
    3.3579    2.7755   18.7593 H   0  0  0  0  0  0  0  0  0  0  0  0
    2.6887    3.3348   21.0861 H   0  0  0  0  0  0  0  0  0  0  0  0
    3.9935    2.4439   23.0064 H   0  0  0  0  0  0  0  0  0  0  0  0
    5.9493    1.0060   22.6163 H   0  0  0  0  0  0  0  0  0  0  0  0
    7.3047   -2.3221   21.0636 H   0  0  0  0  0  0  0  0  0  0  0  0
    6.7319   -1.5264   22.5300 H   0  0  0  0  0  0  0  0  0  0  0  0
    9.5826   -2.1810   21.7302 H   0  0  0  0  0  0  0  0  0  0  0  0
    9.7883   -2.8495   24.1593 H   0  0  0  0  0  0  0  0  0  0  0  0
    8.0438   -2.5592   24.3564 H   0  0  0  0  0  0  0  0  0  0  0  0
    9.2871   -4.7370   22.7709 H   0  0  0  0  0  0  0  0  0  0  0  0
    4.2154   -4.2052   23.7786 H   0  0  0  0  0  0  0  0  0  0  0  0
    5.9265   -7.3809   21.8441 H   0  0  0  0  0  0  0  0  0  0  0  0
   11.4778   -1.9610   21.8089 H   0  0  0  0  0  0  0  0  0  0  0  0
   14.7480    0.6113   22.8178 H   0  0  0  0  0  0  0  0  0  0  0  0
   13.1523    2.1425   24.0117 H   0  0  0  0  0  0  0  0  0  0  0  0
  1  2  1  0
  2  3  1  0
  3  4  2  0
  3  5  1  0
  5  6  1  0
  6  7  1  0
  8  7  1  1
  8  9  1  0
  9 10  2  0
  9 11  1  0
 11 12  1  0
 12 13  2  0
 13 14  1  0
 14 15  2  0
 15 16  1  0
 16 17  2  0
 17 18  1  0
 18 19  2  0
 19 20  1  0
 20 21  2  0
 11 22  1  0
 22 23  1  0
 23 24  1  0
 24 25  1  0
 25 26  1  0
 26 27  2  0
 27 28  1  0
 28 29  2  0
 29 30  1  0
 30 31  2  0
  8 32  1  0
 32 33  2  0
 33 34  1  0
 34 35  1  0
 34 36  2  0
 36 37  1  0
 37 38  2  0
 38 39  1  0
 39 40  2  0
 39  6  1  0
 23  8  1  0
 31 26  1  0
 38 32  1  0
 21 12  1  0
 21 16  1  0
  1 41  1  0
  1 42  1  0
  1 43  1  0
  2 44  1  0
  5 45  1  0
  5 46  1  0
  7 47  1  0
  7 48  1  0
 13 49  1  0
 15 50  1  0
 17 51  1  0
 18 52  1  0
 19 53  1  0
 20 54  1  0
 22 55  1  0
 22 56  1  0
 23 57  1  6
 24 58  1  0
 24 59  1  0
 25 60  1  0
 28 61  1  0
 30 62  1  0
 33 63  1  0
 36 64  1  0
 37 65  1  0
M  END
$$$$
