
     RDKit          3D

 46 48  0  0  0  0  0  0  0  0999 V2000
  -10.3812    0.4095  -27.2200 C   0  0  0  0  0  0  0  0  0  0  0  0
  -10.9909    0.8268  -25.8737 C   0  0  0  0  0  0  0  0  0  0  0  0
  -10.5887    2.2653  -25.5393 C   0  0  0  0  0  0  0  0  0  0  0  0
  -10.6029   -0.1960  -24.7713 C   0  0  0  0  0  0  0  0  0  0  0  0
  -11.4538   -0.1269  -23.4819 C   0  0  0  0  0  0  0  0  0  0  0  0
  -11.0800   -1.2468  -22.5061 C   0  0  0  0  0  0  0  0  0  0  0  0
   -9.6483   -1.2939  -22.2291 N   0  0  0  0  0  0  0  0  0  0  0  0
   -9.1833   -0.7154  -21.0568 C   0  0  0  0  0  0  0  0  0  0  0  0
   -9.8335    0.1021  -20.4312 O   0  0  0  0  0  0  0  0  0  0  0  0
   -7.8333   -1.2552  -20.5671 C   0  0  0  0  0  0  0  0  0  0  0  0
   -7.0921   -0.3697  -19.6094 C   0  0  0  0  0  0  0  0  0  0  0  0
   -7.3958   -0.4276  -18.2759 C   0  0  0  0  0  0  0  0  0  0  0  0
   -6.7617    0.2672  -17.2951 N   0  0  0  0  0  0  0  0  0  0  0  0
   -5.7790    1.0529  -17.6740 C   0  0  0  0  0  0  0  0  0  0  0  0
   -5.3608    1.2265  -19.0213 C   0  0  0  0  0  0  0  0  0  0  0  0
   -4.3077    2.1084  -19.3783 C   0  0  0  0  0  0  0  0  0  0  0  0
   -3.9633    2.2851  -20.6883 C   0  0  0  0  0  0  0  0  0  0  0  0
   -4.6561    1.5882  -21.7019 C   0  0  0  0  0  0  0  0  0  0  0  0
   -5.6714    0.7169  -21.3846 C   0  0  0  0  0  0  0  0  0  0  0  0
   -6.0500    0.5092  -20.0313 C   0  0  0  0  0  0  0  0  0  0  0  0
   -8.8404   -1.3731  -23.4451 C   0  0  0  0  0  0  0  0  0  0  0  0
   -9.1192   -0.1670  -24.3475 C   0  0  0  0  0  0  0  0  0  0  0  0
   -9.2897    0.3556  -27.1641 H   0  0  0  0  0  0  0  0  0  0  0  0
  -10.7336   -0.5766  -27.5356 H   0  0  0  0  0  0  0  0  0  0  0  0
  -10.6053    1.1230  -28.0187 H   0  0  0  0  0  0  0  0  0  0  0  0
  -12.0872    0.7820  -25.9759 H   0  0  0  0  0  0  0  0  0  0  0  0
  -10.9522    2.9878  -26.2803 H   0  0  0  0  0  0  0  0  0  0  0  0
   -9.4960    2.3543  -25.5254 H   0  0  0  0  0  0  0  0  0  0  0  0
  -10.9779    2.5748  -24.5640 H   0  0  0  0  0  0  0  0  0  0  0  0
  -10.7837   -1.1807  -25.2376 H   0  0  0  0  0  0  0  0  0  0  0  0
  -12.5278   -0.2020  -23.7060 H   0  0  0  0  0  0  0  0  0  0  0  0
  -11.2914    0.8283  -22.9633 H   0  0  0  0  0  0  0  0  0  0  0  0
  -11.6103   -1.1097  -21.5642 H   0  0  0  0  0  0  0  0  0  0  0  0
  -11.3854   -2.2177  -22.9275 H   0  0  0  0  0  0  0  0  0  0  0  0
   -7.1953   -1.5389  -21.4062 H   0  0  0  0  0  0  0  0  0  0  0  0
   -8.0703   -2.2037  -20.0659 H   0  0  0  0  0  0  0  0  0  0  0  0
   -8.2030   -1.0810  -17.9385 H   0  0  0  0  0  0  0  0  0  0  0  0
   -5.2550    1.6100  -16.8960 H   0  0  0  0  0  0  0  0  0  0  0  0
   -3.7942    2.6515  -18.5886 H   0  0  0  0  0  0  0  0  0  0  0  0
   -3.1660    2.9726  -20.9607 H   0  0  0  0  0  0  0  0  0  0  0  0
   -4.3877    1.7497  -22.7404 H   0  0  0  0  0  0  0  0  0  0  0  0
   -6.1939    0.1982  -22.1850 H   0  0  0  0  0  0  0  0  0  0  0  0
   -7.7810   -1.4234  -23.1952 H   0  0  0  0  0  0  0  0  0  0  0  0
   -9.0942   -2.2993  -23.9799 H   0  0  0  0  0  0  0  0  0  0  0  0
   -8.4184   -0.1624  -25.1937 H   0  0  0  0  0  0  0  0  0  0  0  0
   -8.9144    0.7475  -23.7713 H   0  0  0  0  0  0  0  0  0  0  0  0
  1  2  1  0
  2  3  1  0
  2  4  1  0
  4  5  1  0
  5  6  1  0
  6  7  1  0
  7  8  1  0
  8  9  2  0
  8 10  1  0
 10 11  1  0
 11 12  2  0
 12 13  1  0
 13 14  2  0
 14 15  1  0
 15 16  2  0
 16 17  1  0
 17 18  2  0
 18 19  1  0
 19 20  2  0
  7 21  1  0
 21 22  1  0
 22  4  1  0
 20 11  1  0
 20 15  1  0
  1 23  1  0
  1 24  1  0
  1 25  1  0
  2 26  1  0
  3 27  1  0
  3 28  1  0
  3 29  1  0
  4 30  1  0
  5 31  1  0
  5 32  1  0
  6 33  1  0
  6 34  1  0
 10 35  1  0
 10 36  1  0
 12 37  1  0
 14 38  1  0
 16 39  1  0
 17 40  1  0
 18 41  1  0
 19 42  1  0
 21 43  1  0
 21 44  1  0
 22 45  1  0
 22 46  1  0
M  END
$$$$
