
     RDKit          3D

 66 71  0  0  0  0  0  0  0  0999 V2000
    9.4913   -2.5334   23.7790 C   0  0  0  0  0  0  0  0  0  0  0  0
    9.4056   -1.6210   22.5631 C   0  0  1  0  0  0  0  0  0  0  0  0
    8.0001   -1.4915   21.9537 C   0  0  0  0  0  0  0  0  0  0  0  0
    8.1189   -0.2617   21.1826 N   0  0  0  0  0  0  0  0  0  0  0  0
    7.2203    0.1665   20.1727 C   0  0  0  0  0  0  0  0  0  0  0  0
    7.4971   -0.1250   18.8616 C   0  0  0  0  0  0  0  0  0  0  0  0
    6.7204    0.2427   17.8102 N   0  0  0  0  0  0  0  0  0  0  0  0
    5.6408    0.9366   18.0797 C   0  0  0  0  0  0  0  0  0  0  0  0
    5.2357    1.3153   19.3926 C   0  0  0  0  0  0  0  0  0  0  0  0
    4.0731    2.0986   19.6227 C   0  0  0  0  0  0  0  0  0  0  0  0
    3.7192    2.4590   20.8919 C   0  0  0  0  0  0  0  0  0  0  0  0
    4.5097    2.0609   21.9915 C   0  0  0  0  0  0  0  0  0  0  0  0
    5.6470    1.3125   21.7972 C   0  0  0  0  0  0  0  0  0  0  0  0
    6.0416    0.9193   20.4870 C   0  0  0  0  0  0  0  0  0  0  0  0
    9.2433    0.4735   21.4939 C   0  0  0  0  0  0  0  0  0  0  0  0
    9.6423    1.4344   20.8617 O   0  0  0  0  0  0  0  0  0  0  0  0
    9.8674   -0.1418   22.7659 C   0  0  1  0  0  0  0  0  0  0  0  0
    9.2157    0.4504   24.0504 C   0  0  0  0  0  0  0  0  0  0  0  0
    9.7219    1.7658   24.4002 N   0  0  0  0  0  0  0  0  0  0  0  0
    8.7940    2.8730   24.6054 C   0  0  0  0  0  0  0  0  0  0  0  0
    8.3888    3.5509   23.2901 C   0  0  0  0  0  0  0  0  0  0  0  0
    9.2038    4.7724   22.9940 N   0  0  0  0  0  4  0  0  0  0  0  0
    8.5292    5.7006   22.0220 C   0  0  0  0  0  0  0  0  0  0  0  0
    9.3311    6.9859   21.8671 C   0  0  0  0  0  0  0  0  0  0  0  0
   10.6594    6.7617   21.4415 O   0  0  0  0  0  0  0  0  0  0  0  0
   11.3419    5.7988   22.2167 C   0  0  0  0  0  0  0  0  0  0  0  0
   10.5784    4.4938   22.4274 C   0  0  0  0  0  0  0  0  0  0  0  0
   11.0672    1.9950   24.4639 C   0  0  0  0  0  0  0  0  0  0  0  0
   11.5652    2.9383   25.0661 O   0  0  0  0  0  0  0  0  0  0  0  0
   11.9263    1.0743   23.6370 C   0  0  0  0  0  0  0  0  0  0  0  0
   13.3036    1.3048   23.6329 C   0  0  0  0  0  0  0  0  0  0  0  0
   14.1353    0.6121   22.7725 C   0  0  0  0  0  0  0  0  0  0  0  0
   13.5627   -0.3291   21.9137 C   0  0  0  0  0  0  0  0  0  0  0  0
   14.5806   -1.1734   20.7763 Cl  0  0  0  0  0  0  0  0  0  0  0  0
   12.2032   -0.5851   21.9182 C   0  0  0  0  0  0  0  0  0  0  0  0
   11.3577    0.0980   22.8057 C   0  0  0  0  0  0  0  0  0  0  0  0
    9.2677   -3.5695   23.5011 H   0  0  0  0  0  0  0  0  0  0  0  0
   10.4966   -2.5009   24.2144 H   0  0  0  0  0  0  0  0  0  0  0  0
    8.7756   -2.2366   24.5563 H   0  0  0  0  0  0  0  0  0  0  0  0
   10.0232   -2.0524   21.7655 H   0  0  0  0  0  0  0  0  0  0  0  0
    7.2264   -1.4222   22.7361 H   0  0  0  0  0  0  0  0  0  0  0  0
    7.7422   -2.3440   21.3158 H   0  0  0  0  0  0  0  0  0  0  0  0
    8.3964   -0.6864   18.6172 H   0  0  0  0  0  0  0  0  0  0  0  0
    5.0277    1.2491   17.2320 H   0  0  0  0  0  0  0  0  0  0  0  0
    3.4835    2.4140   18.7654 H   0  0  0  0  0  0  0  0  0  0  0  0
    2.8318    3.0629   21.0650 H   0  0  0  0  0  0  0  0  0  0  0  0
    4.2217    2.3585   22.9945 H   0  0  0  0  0  0  0  0  0  0  0  0
    6.2530    1.0283   22.6535 H   0  0  0  0  0  0  0  0  0  0  0  0
    9.4055   -0.2386   24.8851 H   0  0  0  0  0  0  0  0  0  0  0  0
    8.1322    0.5350   23.9225 H   0  0  0  0  0  0  0  0  0  0  0  0
    7.9169    2.5016   25.1457 H   0  0  0  0  0  0  0  0  0  0  0  0
    9.2823    3.5986   25.2543 H   0  0  0  0  0  0  0  0  0  0  0  0
    8.4951    2.8438   22.4633 H   0  0  0  0  0  0  0  0  0  0  0  0
    7.3438    3.8708   23.3132 H   0  0  0  0  0  0  0  0  0  0  0  0
    9.3287    5.2862   23.8927 H   0  0  0  0  0  0  0  0  0  0  0  0
    7.5200    5.9312   22.3668 H   0  0  0  0  0  0  0  0  0  0  0  0
    8.4387    5.1843   21.0602 H   0  0  0  0  0  0  0  0  0  0  0  0
    9.3072    7.5329   22.8288 H   0  0  0  0  0  0  0  0  0  0  0  0
    8.8665    7.5953   21.0873 H   0  0  0  0  0  0  0  0  0  0  0  0
   11.6203    6.2050   23.2065 H   0  0  0  0  0  0  0  0  0  0  0  0
   12.2700    5.5766   21.6838 H   0  0  0  0  0  0  0  0  0  0  0  0
   11.1496    3.8920   23.1226 H   0  0  0  0  0  0  0  0  0  0  0  0
   10.4743    3.9131   21.5049 H   0  0  0  0  0  0  0  0  0  0  0  0
   13.7025    2.0569   24.3069 H   0  0  0  0  0  0  0  0  0  0  0  0
   15.2058    0.8013   22.7514 H   0  0  0  0  0  0  0  0  0  0  0  0
   11.8077   -1.3149   21.2175 H   0  0  0  0  0  0  0  0  0  0  0  0
  1  2  1  0
  2  3  1  0
  3  4  1  0
  4  5  1  0
  5  6  2  0
  6  7  1  0
  7  8  2  0
  8  9  1  0
  9 10  2  0
 10 11  1  0
 11 12  2  0
 12 13  1  0
 13 14  2  0
  4 15  1  0
 15 16  2  0
 15 17  1  0
 17 18  1  1
 18 19  1  0
 19 20  1  0
 20 21  1  0
 21 22  1  0
 22 23  1  0
 23 24  1  0
 24 25  1  0
 25 26  1  0
 26 27  1  0
 19 28  1  0
 28 29  2  0
 28 30  1  0
 30 31  2  0
 31 32  1  0
 32 33  2  0
 33 34  1  0
 33 35  1  0
 35 36  2  0
 17  2  1  0
 27 22  1  0
 36 30  1  0
 14  5  1  0
 36 17  1  0
 14  9  1  0
  1 37  1  0
  1 38  1  0
  1 39  1  0
  2 40  1  6
  3 41  1  0
  3 42  1  0
  6 43  1  0
  8 44  1  0
 10 45  1  0
 11 46  1  0
 12 47  1  0
 13 48  1  0
 18 49  1  0
 18 50  1  0
 20 51  1  0
 20 52  1  0
 21 53  1  0
 21 54  1  0
 22 55  1  0
 23 56  1  0
 23 57  1  0
 24 58  1  0
 24 59  1  0
 26 60  1  0
 26 61  1  0
 27 62  1  0
 27 63  1  0
 31 64  1  0
 32 65  1  0
 35 66  1  0
M  CHG  1  22   1
M  END
$$$$
