
     RDKit          3D

 67 72  0  0  0  0  0  0  0  0999 V2000
    9.4838   -2.5128   23.7931 C   0  0  0  0  0  0  0  0  0  0  0  0
    9.3841   -1.5913   22.5875 C   0  0  1  0  0  0  0  0  0  0  0  0
    7.9836   -1.4925   21.9677 C   0  0  0  0  0  0  0  0  0  0  0  0
    8.0886   -0.2673   21.1927 N   0  0  0  0  0  0  0  0  0  0  0  0
    7.2040    0.1566   20.1800 C   0  0  0  0  0  0  0  0  0  0  0  0
    7.4980   -0.1277   18.8701 C   0  0  0  0  0  0  0  0  0  0  0  0
    6.7332    0.2481   17.8188 N   0  0  0  0  0  0  0  0  0  0  0  0
    5.6533    0.9445   18.0940 C   0  0  0  0  0  0  0  0  0  0  0  0
    5.2514    1.3305   19.4059 C   0  0  0  0  0  0  0  0  0  0  0  0
    4.0872    2.1149   19.6299 C   0  0  0  0  0  0  0  0  0  0  0  0
    3.7344    2.4841   20.9015 C   0  0  0  0  0  0  0  0  0  0  0  0
    4.5240    2.0937   22.0060 C   0  0  0  0  0  0  0  0  0  0  0  0
    5.6537    1.3288   21.8148 C   0  0  0  0  0  0  0  0  0  0  0  0
    6.0440    0.9235   20.5019 C   0  0  0  0  0  0  0  0  0  0  0  0
    9.2140    0.4750   21.4667 C   0  0  0  0  0  0  0  0  0  0  0  0
    9.6015    1.4089   20.7875 O   0  0  0  0  0  0  0  0  0  0  0  0
    9.8375   -0.1043   22.7563 C   0  0  1  0  0  0  0  0  0  0  0  0
    9.2015    0.5585   24.0103 C   0  0  0  0  0  0  0  0  0  0  0  0
    9.6958    1.9078   24.2194 N   0  0  0  0  0  0  0  0  0  0  0  0
    8.7972    3.0355   24.3976 C   0  0  0  0  0  0  0  0  0  0  0  0
    8.4473    3.6883   23.0557 C   0  0  0  0  0  0  0  0  0  0  0  0
    7.5475    4.8214   23.2238 N   0  0  0  0  0  0  0  0  0  0  0  0
    6.7313    5.0816   22.0443 C   0  0  0  0  0  0  0  0  0  0  0  0
    5.5239    5.9561   22.3730 C   0  0  0  0  0  0  0  0  0  0  0  0
    6.0276    7.5380   23.0567 S   0  0  0  0  0  0  0  0  0  0  0  0
    4.9009    8.1368   23.7656 O   0  0  0  0  0  0  0  0  0  0  0  0
    6.7240    8.2764   22.0026 O   0  0  0  0  0  0  0  0  0  0  0  0
    7.2698    7.0471   24.2541 C   0  0  0  0  0  0  0  0  0  0  0  0
    8.2389    6.0382   23.6409 C   0  0  0  0  0  0  0  0  0  0  0  0
   11.0400    2.1198   24.3498 C   0  0  0  0  0  0  0  0  0  0  0  0
   11.5146    3.0608   24.9693 O   0  0  0  0  0  0  0  0  0  0  0  0
   11.8956    1.1362   23.6086 C   0  0  0  0  0  0  0  0  0  0  0  0
   13.2742    1.3281   23.6432 C   0  0  0  0  0  0  0  0  0  0  0  0
   14.0993    0.6157   22.7968 C   0  0  0  0  0  0  0  0  0  0  0  0
   13.5223   -0.3073   21.9275 C   0  0  0  0  0  0  0  0  0  0  0  0
   14.5227   -1.1626   20.7960 Cl  0  0  0  0  0  0  0  0  0  0  0  0
   12.1667   -0.5716   21.9391 C   0  0  0  0  0  0  0  0  0  0  0  0
   11.3270    0.1403   22.8015 C   0  0  0  0  0  0  0  0  0  0  0  0
    9.2610   -3.5428   23.4922 H   0  0  0  0  0  0  0  0  0  0  0  0
   10.4910   -2.4940   24.2220 H   0  0  0  0  0  0  0  0  0  0  0  0
    8.7723   -2.2281   24.5764 H   0  0  0  0  0  0  0  0  0  0  0  0
   10.0201   -1.9995   21.7964 H   0  0  0  0  0  0  0  0  0  0  0  0
    7.7527   -2.3453   21.3211 H   0  0  0  0  0  0  0  0  0  0  0  0
    7.1984   -1.4430   22.7393 H   0  0  0  0  0  0  0  0  0  0  0  0
    8.4036   -0.6846   18.6402 H   0  0  0  0  0  0  0  0  0  0  0  0
    5.0304    1.2470   17.2536 H   0  0  0  0  0  0  0  0  0  0  0  0
    3.4922    2.4126   18.7711 H   0  0  0  0  0  0  0  0  0  0  0  0
    2.8389    3.0768   21.0686 H   0  0  0  0  0  0  0  0  0  0  0  0
    4.2475    2.4233   23.0073 H   0  0  0  0  0  0  0  0  0  0  0  0
    6.2450    1.0411   22.6784 H   0  0  0  0  0  0  0  0  0  0  0  0
    8.1105    0.6061   23.9275 H   0  0  0  0  0  0  0  0  0  0  0  0
    9.4550   -0.0527   24.8895 H   0  0  0  0  0  0  0  0  0  0  0  0
    7.8807    2.6773   24.8796 H   0  0  0  0  0  0  0  0  0  0  0  0
    9.2969    3.7383   25.0727 H   0  0  0  0  0  0  0  0  0  0  0  0
    9.3713    3.9681   22.5209 H   0  0  0  0  0  0  0  0  0  0  0  0
    7.9732    2.9260   22.4265 H   0  0  0  0  0  0  0  0  0  0  0  0
    6.3516    4.1328   21.6554 H   0  0  0  0  0  0  0  0  0  0  0  0
    7.3179    5.5437   21.2308 H   0  0  0  0  0  0  0  0  0  0  0  0
    4.9414    6.1910   21.4763 H   0  0  0  0  0  0  0  0  0  0  0  0
    4.8648    5.4748   23.1008 H   0  0  0  0  0  0  0  0  0  0  0  0
    6.7513    6.6406   25.1270 H   0  0  0  0  0  0  0  0  0  0  0  0
    7.7719    7.9749   24.5452 H   0  0  0  0  0  0  0  0  0  0  0  0
    8.9875    5.7981   24.4001 H   0  0  0  0  0  0  0  0  0  0  0  0
    8.7850    6.5109   22.8055 H   0  0  0  0  0  0  0  0  0  0  0  0
   13.6610    2.0774   24.3236 H   0  0  0  0  0  0  0  0  0  0  0  0
   15.1659    0.8039   22.7652 H   0  0  0  0  0  0  0  0  0  0  0  0
   11.7712   -1.3070   21.2474 H   0  0  0  0  0  0  0  0  0  0  0  0
  1  2  1  0
  2  3  1  0
  3  4  1  0
  4  5  1  0
  5  6  2  0
  6  7  1  0
  7  8  2  0
  8  9  1  0
  9 10  2  0
 10 11  1  0
 11 12  2  0
 12 13  1  0
 13 14  2  0
  4 15  1  0
 15 16  2  0
 15 17  1  0
 17 18  1  1
 18 19  1  0
 19 20  1  0
 20 21  1  0
 21 22  1  0
 22 23  1  0
 23 24  1  0
 24 25  1  0
 25 26  2  0
 25 27  2  0
 25 28  1  0
 28 29  1  0
 19 30  1  0
 30 31  2  0
 30 32  1  0
 32 33  2  0
 33 34  1  0
 34 35  2  0
 35 36  1  0
 35 37  1  0
 37 38  2  0
 17  2  1  0
 29 22  1  0
 38 32  1  0
 14  5  1  0
 38 17  1  0
 14  9  1  0
  1 39  1  0
  1 40  1  0
  1 41  1  0
  2 42  1  6
  3 43  1  0
  3 44  1  0
  6 45  1  0
  8 46  1  0
 10 47  1  0
 11 48  1  0
 12 49  1  0
 13 50  1  0
 18 51  1  0
 18 52  1  0
 20 53  1  0
 20 54  1  0
 21 55  1  0
 21 56  1  0
 23 57  1  0
 23 58  1  0
 24 59  1  0
 24 60  1  0
 28 61  1  0
 28 62  1  0
 29 63  1  0
 29 64  1  0
 33 65  1  0
 34 66  1  0
 37 67  1  0
M  END
$$$$
