
     RDKit          3D

 58 63  0  0  0  0  0  0  0  0999 V2000
    8.8503   -2.7968   23.6490 C   0  0  0  0  0  0  0  0  0  0  0  0
    8.9093   -1.7932   22.5048 C   0  0  1  0  0  0  0  0  0  0  0  0
    7.5646   -1.5496   21.8058 C   0  0  0  0  0  0  0  0  0  0  0  0
    7.7754   -0.2702   21.1564 N   0  0  0  0  0  0  0  0  0  0  0  0
    6.9417    0.2660   20.1399 C   0  0  0  0  0  0  0  0  0  0  0  0
    7.2135   -0.0119   18.8242 C   0  0  0  0  0  0  0  0  0  0  0  0
    6.4886    0.4439   17.7734 N   0  0  0  0  0  0  0  0  0  0  0  0
    5.4521    1.2064   18.0419 C   0  0  0  0  0  0  0  0  0  0  0  0
    5.0385    1.5598   19.3590 C   0  0  0  0  0  0  0  0  0  0  0  0
    3.9098    2.3905   19.6119 C   0  0  0  0  0  0  0  0  0  0  0  0
    3.5419    2.6930   20.8951 C   0  0  0  0  0  0  0  0  0  0  0  0
    4.2754    2.1772   21.9884 C   0  0  0  0  0  0  0  0  0  0  0  0
    5.3811    1.3913   21.7703 C   0  0  0  0  0  0  0  0  0  0  0  0
    5.7960    1.0666   20.4514 C   0  0  0  0  0  0  0  0  0  0  0  0
    8.8222    0.4548   21.6905 C   0  0  0  0  0  0  0  0  0  0  0  0
    9.1723    1.5367   21.2807 O   0  0  0  0  0  0  0  0  0  0  0  0
    9.4264   -0.3714   22.8585 C   0  0  1  0  0  0  0  0  0  0  0  0
    8.8535    0.1243   24.2137 C   0  0  0  0  0  0  0  0  0  0  0  0
    9.2774    1.4767   24.5237 N   0  0  0  0  0  0  0  0  0  0  0  0
    8.3819    2.3107   25.2944 C   0  0  0  0  0  0  0  0  0  0  0  0
    7.5269    3.2194   24.4579 C   0  0  0  0  0  0  0  0  0  0  0  0
    6.3106    3.8050   24.8161 C   0  0  0  0  0  0  0  0  0  0  0  0
    5.8858    4.5712   23.8115 N   0  0  0  0  0  0  0  0  0  0  0  0
    6.8275    4.4305   22.9032 N   0  0  0  0  0  0  0  0  0  0  0  0
    6.7229    4.9986   21.5793 C   0  0  0  0  0  0  0  0  0  0  0  0
    7.8222    3.6222   23.2218 N   0  0  0  0  0  0  0  0  0  0  0  0
   10.5462    1.9255   24.2777 C   0  0  0  0  0  0  0  0  0  0  0  0
   10.9223    3.0325   24.6358 O   0  0  0  0  0  0  0  0  0  0  0  0
   11.4424    0.9586   23.5542 C   0  0  0  0  0  0  0  0  0  0  0  0
   12.8091    1.2401   23.5176 C   0  0  0  0  0  0  0  0  0  0  0  0
   13.6910    0.3939   22.8725 C   0  0  0  0  0  0  0  0  0  0  0  0
   13.1667   -0.7475   22.2716 C   0  0  0  0  0  0  0  0  0  0  0  0
   14.0036   -1.5791   21.6271 F   0  0  0  0  0  0  0  0  0  0  0  0
   11.8206   -1.0562   22.2876 C   0  0  0  0  0  0  0  0  0  0  0  0
   10.9276   -0.1902   22.9282 C   0  0  0  0  0  0  0  0  0  0  0  0
    8.0984   -2.5082   24.3895 H   0  0  0  0  0  0  0  0  0  0  0  0
    9.8070   -2.8634   24.1773 H   0  0  0  0  0  0  0  0  0  0  0  0
    8.5954   -3.8007   23.2938 H   0  0  0  0  0  0  0  0  0  0  0  0
    9.5747   -2.1935   21.7369 H   0  0  0  0  0  0  0  0  0  0  0  0
    7.3252   -2.3190   21.0674 H   0  0  0  0  0  0  0  0  0  0  0  0
    6.7421   -1.5316   22.5428 H   0  0  0  0  0  0  0  0  0  0  0  0
    8.0703   -0.6309   18.5694 H   0  0  0  0  0  0  0  0  0  0  0  0
    4.8761    1.5816   17.1945 H   0  0  0  0  0  0  0  0  0  0  0  0
    3.3508    2.7836   18.7646 H   0  0  0  0  0  0  0  0  0  0  0  0
    2.6834    3.3358   21.0822 H   0  0  0  0  0  0  0  0  0  0  0  0
    3.9736    2.4159   23.0036 H   0  0  0  0  0  0  0  0  0  0  0  0
    5.9547    0.9946   22.6053 H   0  0  0  0  0  0  0  0  0  0  0  0
    7.7586    0.1116   24.1733 H   0  0  0  0  0  0  0  0  0  0  0  0
    9.1728   -0.5502   25.0227 H   0  0  0  0  0  0  0  0  0  0  0  0
    7.7342    1.6622   25.8969 H   0  0  0  0  0  0  0  0  0  0  0  0
    8.9862    2.8860   26.0024 H   0  0  0  0  0  0  0  0  0  0  0  0
    5.7517    3.6939   25.7312 H   0  0  0  0  0  0  0  0  0  0  0  0
    7.7050    5.3553   21.2716 H   0  0  0  0  0  0  0  0  0  0  0  0
    6.3420    4.2486   20.8794 H   0  0  0  0  0  0  0  0  0  0  0  0
    6.0279    5.8311   21.6281 H   0  0  0  0  0  0  0  0  0  0  0  0
   13.1660    2.1383   24.0085 H   0  0  0  0  0  0  0  0  0  0  0  0
   14.7577    0.5985   22.8117 H   0  0  0  0  0  0  0  0  0  0  0  0
   11.4890   -1.9701   21.8035 H   0  0  0  0  0  0  0  0  0  0  0  0
  1  2  1  0
  2  3  1  0
  3  4  1  0
  4  5  1  0
  5  6  2  0
  6  7  1  0
  7  8  2  0
  8  9  1  0
  9 10  2  0
 10 11  1  0
 11 12  2  0
 12 13  1  0
 13 14  2  0
  4 15  1  0
 15 16  2  0
 15 17  1  0
 17 18  1  1
 18 19  1  0
 19 20  1  0
 20 21  1  0
 21 22  1  0
 22 23  2  0
 23 24  1  0
 24 25  1  0
 24 26  1  0
 19 27  1  0
 27 28  2  0
 27 29  1  0
 29 30  2  0
 30 31  1  0
 31 32  2  0
 32 33  1  0
 32 34  1  0
 34 35  2  0
 17  2  1  0
 26 21  2  0
 35 29  1  0
 14  5  1  0
 35 17  1  0
 14  9  1  0
  1 36  1  0
  1 37  1  0
  1 38  1  0
  2 39  1  6
  3 40  1  0
  3 41  1  0
  6 42  1  0
  8 43  1  0
 10 44  1  0
 11 45  1  0
 12 46  1  0
 13 47  1  0
 18 48  1  0
 18 49  1  0
 20 50  1  0
 20 51  1  0
 22 52  1  0
 25 53  1  0
 25 54  1  0
 25 55  1  0
 30 56  1  0
 31 57  1  0
 34 58  1  0
M  END
$$$$
