
     RDKit          3D

 57 62  0  0  0  0  0  0  0  0999 V2000
    8.8505   -2.7965   23.6495 C   0  0  0  0  0  0  0  0  0  0  0  0
    8.9100   -1.7934   22.5049 C   0  0  1  0  0  0  0  0  0  0  0  0
    7.5654   -1.5496   21.8061 C   0  0  0  0  0  0  0  0  0  0  0  0
    7.7750   -0.2698   21.1569 N   0  0  0  0  0  0  0  0  0  0  0  0
    6.9404    0.2654   20.1404 C   0  0  0  0  0  0  0  0  0  0  0  0
    7.2126   -0.0126   18.8247 C   0  0  0  0  0  0  0  0  0  0  0  0
    6.4884    0.4437   17.7731 N   0  0  0  0  0  0  0  0  0  0  0  0
    5.4516    1.2058   18.0417 C   0  0  0  0  0  0  0  0  0  0  0  0
    5.0377    1.5582   19.3590 C   0  0  0  0  0  0  0  0  0  0  0  0
    3.9092    2.3901   19.6121 C   0  0  0  0  0  0  0  0  0  0  0  0
    3.5424    2.6931   20.8956 C   0  0  0  0  0  0  0  0  0  0  0  0
    4.2769    2.1814   21.9902 C   0  0  0  0  0  0  0  0  0  0  0  0
    5.3823    1.3943   21.7725 C   0  0  0  0  0  0  0  0  0  0  0  0
    5.7952    1.0660   20.4526 C   0  0  0  0  0  0  0  0  0  0  0  0
    8.8217    0.4557   21.6913 C   0  0  0  0  0  0  0  0  0  0  0  0
    9.1715    1.5377   21.2831 O   0  0  0  0  0  0  0  0  0  0  0  0
    9.4257   -0.3706   22.8589 C   0  0  1  0  0  0  0  0  0  0  0  0
    8.8500    0.1270   24.2132 C   0  0  0  0  0  0  0  0  0  0  0  0
    9.2655    1.4850   24.5202 N   0  0  0  0  0  0  0  0  0  0  0  0
    8.3675    2.3160   25.2972 C   0  0  0  0  0  0  0  0  0  0  0  0
    7.5236    3.2243   24.4508 C   0  0  0  0  0  0  0  0  0  0  0  0
    6.3375    3.7410   24.8497 N   0  0  0  0  0  0  0  0  0  0  0  0
    5.9115    4.4802   23.8601 N   0  0  0  0  0  0  0  0  0  0  0  0
    6.8273    4.4112   22.9240 N   0  0  0  0  0  0  0  0  0  0  0  0
    6.6759    5.0237   21.6276 C   0  0  0  0  0  0  0  0  0  0  0  0
    7.8461    3.6268   23.2274 N   0  0  0  0  0  0  0  0  0  0  0  0
   10.5398    1.9290   24.2783 C   0  0  0  0  0  0  0  0  0  0  0  0
   10.9193    3.0341   24.6376 O   0  0  0  0  0  0  0  0  0  0  0  0
   11.4394    0.9601   23.5560 C   0  0  0  0  0  0  0  0  0  0  0  0
   12.8071    1.2403   23.5184 C   0  0  0  0  0  0  0  0  0  0  0  0
   13.6892    0.3941   22.8725 C   0  0  0  0  0  0  0  0  0  0  0  0
   13.1662   -0.7475   22.2714 C   0  0  0  0  0  0  0  0  0  0  0  0
   14.0030   -1.5791   21.6270 F   0  0  0  0  0  0  0  0  0  0  0  0
   11.8202   -1.0557   22.2883 C   0  0  0  0  0  0  0  0  0  0  0  0
   10.9269   -0.1890   22.9287 C   0  0  0  0  0  0  0  0  0  0  0  0
    8.5954   -3.8001   23.2935 H   0  0  0  0  0  0  0  0  0  0  0  0
    9.8075   -2.8633   24.1774 H   0  0  0  0  0  0  0  0  0  0  0  0
    8.0979   -2.5077   24.3894 H   0  0  0  0  0  0  0  0  0  0  0  0
    9.5733   -2.1962   21.7358 H   0  0  0  0  0  0  0  0  0  0  0  0
    6.7433   -1.5311   22.5434 H   0  0  0  0  0  0  0  0  0  0  0  0
    7.3272   -2.3192   21.0675 H   0  0  0  0  0  0  0  0  0  0  0  0
    8.0702   -0.6311   18.5703 H   0  0  0  0  0  0  0  0  0  0  0  0
    4.8753    1.5822   17.1946 H   0  0  0  0  0  0  0  0  0  0  0  0
    3.3497    2.7839   18.7657 H   0  0  0  0  0  0  0  0  0  0  0  0
    2.6838    3.3352   21.0822 H   0  0  0  0  0  0  0  0  0  0  0  0
    3.9842    2.4327   23.0057 H   0  0  0  0  0  0  0  0  0  0  0  0
    5.9561    1.0023   22.6099 H   0  0  0  0  0  0  0  0  0  0  0  0
    9.1741   -0.5449   25.0226 H   0  0  0  0  0  0  0  0  0  0  0  0
    7.7549    0.1105   24.1736 H   0  0  0  0  0  0  0  0  0  0  0  0
    8.9720    2.8994   25.9993 H   0  0  0  0  0  0  0  0  0  0  0  0
    7.7170    1.6702   25.8989 H   0  0  0  0  0  0  0  0  0  0  0  0
    5.9486    5.8267   21.7107 H   0  0  0  0  0  0  0  0  0  0  0  0
    7.6367    5.4325   21.3210 H   0  0  0  0  0  0  0  0  0  0  0  0
    6.3190    4.2760   20.9144 H   0  0  0  0  0  0  0  0  0  0  0  0
   13.1673    2.1377   24.0085 H   0  0  0  0  0  0  0  0  0  0  0  0
   14.7560    0.5988   22.8121 H   0  0  0  0  0  0  0  0  0  0  0  0
   11.4898   -1.9697   21.8036 H   0  0  0  0  0  0  0  0  0  0  0  0
  1  2  1  0
  2  3  1  0
  3  4  1  0
  4  5  1  0
  5  6  2  0
  6  7  1  0
  7  8  2  0
  8  9  1  0
  9 10  2  0
 10 11  1  0
 11 12  2  0
 12 13  1  0
 13 14  2  0
  4 15  1  0
 15 16  2  0
 15 17  1  0
 17 18  1  1
 18 19  1  0
 19 20  1  0
 20 21  1  0
 21 22  1  0
 22 23  2  0
 23 24  1  0
 24 25  1  0
 24 26  1  0
 19 27  1  0
 27 28  2  0
 27 29  1  0
 29 30  2  0
 30 31  1  0
 31 32  2  0
 32 33  1  0
 32 34  1  0
 34 35  2  0
 17  2  1  0
 26 21  2  0
 35 29  1  0
 14  5  1  0
 35 17  1  0
 14  9  1  0
  1 36  1  0
  1 37  1  0
  1 38  1  0
  2 39  1  6
  3 40  1  0
  3 41  1  0
  6 42  1  0
  8 43  1  0
 10 44  1  0
 11 45  1  0
 12 46  1  0
 13 47  1  0
 18 48  1  0
 18 49  1  0
 20 50  1  0
 20 51  1  0
 25 52  1  0
 25 53  1  0
 25 54  1  0
 30 55  1  0
 31 56  1  0
 34 57  1  0
M  END
$$$$
