
     RDKit          3D

 40 42  0  0  0  0  0  0  0  0999 V2000
   10.4531    2.5290   25.1243 C   0  0  0  0  0  0  0  0  0  0  0  0
    9.8749    1.5620   24.1060 C   0  0  0  0  0  0  0  0  0  0  0  0
   11.0415    0.8614   23.3731 C   0  0  0  0  0  0  0  0  0  0  0  0
   10.6531   -0.5365   22.8620 C   0  0  0  0  0  0  0  0  0  0  0  0
    9.2191   -0.6393   22.6361 N   0  0  0  0  0  0  0  0  0  0  0  0
    8.7636   -0.2129   21.4092 C   0  0  0  0  0  0  0  0  0  0  0  0
    9.4437    0.4724   20.6686 O   0  0  0  0  0  0  0  0  0  0  0  0
    7.4051   -0.7726   21.0161 C   0  0  0  0  0  0  0  0  0  0  0  0
    6.6617    0.0296   20.0005 C   0  0  0  0  0  0  0  0  0  0  0  0
    7.0503   -0.0371   18.6870 C   0  0  0  0  0  0  0  0  0  0  0  0
    6.4295    0.5780   17.6511 N   0  0  0  0  0  0  0  0  0  0  0  0
    5.3713    1.2992   17.9515 C   0  0  0  0  0  0  0  0  0  0  0  0
    4.8618    1.4708   19.2719 C   0  0  0  0  0  0  0  0  0  0  0  0
    3.7184    2.2651   19.5456 C   0  0  0  0  0  0  0  0  0  0  0  0
    3.2760    2.4383   20.8313 C   0  0  0  0  0  0  0  0  0  0  0  0
    3.9552    1.8235   21.9059 C   0  0  0  0  0  0  0  0  0  0  0  0
    5.0562    1.0352   21.6660 C   0  0  0  0  0  0  0  0  0  0  0  0
    5.5363    0.8329   20.3410 C   0  0  0  0  0  0  0  0  0  0  0  0
    8.4247   -0.5320   23.8569 C   0  0  0  0  0  0  0  0  0  0  0  0
    9.0507    0.4871   24.8259 C   0  0  0  0  0  0  0  0  0  0  0  0
   11.0749    1.9308   25.7968 H   0  0  0  0  0  0  0  0  0  0  0  0
    9.6960    3.0302   25.7324 H   0  0  0  0  0  0  0  0  0  0  0  0
   11.0747    3.3028   24.6635 H   0  0  0  0  0  0  0  0  0  0  0  0
    9.2435    2.1313   23.4002 H   0  0  0  0  0  0  0  0  0  0  0  0
   11.9003    0.7682   24.0587 H   0  0  0  0  0  0  0  0  0  0  0  0
   11.3692    1.4806   22.5334 H   0  0  0  0  0  0  0  0  0  0  0  0
   11.1706   -0.7651   21.9273 H   0  0  0  0  0  0  0  0  0  0  0  0
   10.9083   -1.3111   23.5983 H   0  0  0  0  0  0  0  0  0  0  0  0
    7.6147   -1.7736   20.6056 H   0  0  0  0  0  0  0  0  0  0  0  0
    6.8177   -0.9201   21.9190 H   0  0  0  0  0  0  0  0  0  0  0  0
    7.9294   -0.6243   18.4281 H   0  0  0  0  0  0  0  0  0  0  0  0
    4.8699    1.7972   17.1220 H   0  0  0  0  0  0  0  0  0  0  0  0
    3.2110    2.7457   18.7135 H   0  0  0  0  0  0  0  0  0  0  0  0
    2.4103    3.0633   21.0376 H   0  0  0  0  0  0  0  0  0  0  0  0
    3.6057    1.9768   22.9253 H   0  0  0  0  0  0  0  0  0  0  0  0
    5.5629    0.5702   22.5090 H   0  0  0  0  0  0  0  0  0  0  0  0
    7.4036   -0.2406   23.5919 H   0  0  0  0  0  0  0  0  0  0  0  0
    8.3769   -1.5079   24.3495 H   0  0  0  0  0  0  0  0  0  0  0  0
    9.7316   -0.0457   25.5106 H   0  0  0  0  0  0  0  0  0  0  0  0
    8.2742    0.9504   25.4475 H   0  0  0  0  0  0  0  0  0  0  0  0
  1  2  1  0
  2  3  1  0
  3  4  1  0
  4  5  1  0
  5  6  1  0
  6  7  2  0
  6  8  1  0
  8  9  1  0
  9 10  2  0
 10 11  1  0
 11 12  2  0
 12 13  1  0
 13 14  2  0
 14 15  1  0
 15 16  2  0
 16 17  1  0
 17 18  2  0
  5 19  1  0
 19 20  1  0
 20  2  1  0
 18  9  1  0
 18 13  1  0
  1 21  1  0
  1 22  1  0
  1 23  1  0
  2 24  1  0
  3 25  1  0
  3 26  1  0
  4 27  1  0
  4 28  1  0
  8 29  1  0
  8 30  1  0
 10 31  1  0
 12 32  1  0
 14 33  1  0
 15 34  1  0
 16 35  1  0
 17 36  1  0
 19 37  1  0
 19 38  1  0
 20 39  1  0
 20 40  1  0
M  END
$$$$
