
     RDKit          3D

 69 74  0  0  0  0  0  0  0  0999 V2000
    7.4400    4.5514   22.3141 C   0  0  0  0  0  0  0  0  0  0  0  0
    8.2320    3.7331   23.2421 N   0  0  0  0  0  4  0  0  0  0  0  0
    7.5328    3.3261   24.4846 C   0  0  0  0  0  0  0  0  0  0  0  0
    8.4688    2.4905   25.3759 C   0  0  0  0  0  0  0  0  0  0  0  0
    9.3249    1.5907   24.6180 N   0  0  0  0  0  0  0  0  0  0  0  0
    8.8361    0.2740   24.2525 C   0  0  0  0  0  0  0  0  0  0  0  0
    9.3941   -0.2090   22.8823 C   0  0  2  0  0  0  0  0  0  0  0  0
    8.7105    0.5857   21.7476 C   0  0  0  0  0  0  0  0  0  0  0  0
    8.8815    1.7693   21.4804 O   0  0  0  0  0  0  0  0  0  0  0  0
    7.8065   -0.2153   21.1094 N   0  0  0  0  0  0  0  0  0  0  0  0
    6.9659    0.2850   20.0832 C   0  0  0  0  0  0  0  0  0  0  0  0
    7.2161   -0.0477   18.7777 C   0  0  0  0  0  0  0  0  0  0  0  0
    6.5033    0.4141   17.7209 N   0  0  0  0  0  0  0  0  0  0  0  0
    5.4946    1.2141   17.9834 C   0  0  0  0  0  0  0  0  0  0  0  0
    5.1009    1.6018   19.2979 C   0  0  0  0  0  0  0  0  0  0  0  0
    3.9811    2.4444   19.5360 C   0  0  0  0  0  0  0  0  0  0  0  0
    3.6147    2.7727   20.8139 C   0  0  0  0  0  0  0  0  0  0  0  0
    4.3462    2.2750   21.9165 C   0  0  0  0  0  0  0  0  0  0  0  0
    5.4368    1.4662   21.7129 C   0  0  0  0  0  0  0  0  0  0  0  0
    5.8520    1.1195   20.3930 C   0  0  0  0  0  0  0  0  0  0  0  0
    7.6052   -1.4914   21.7640 C   0  0  0  0  0  0  0  0  0  0  0  0
    8.9176   -1.6373   22.5437 C   0  0  2  0  0  0  0  0  0  0  0  0
    8.8364   -2.6291   23.6893 C   0  0  0  0  0  0  0  0  0  0  0  0
    8.7270   -3.8825   23.0578 O   0  0  0  0  0  0  0  0  0  0  0  0
    8.6733   -5.0501   23.8492 C   0  0  0  0  0  0  0  0  0  0  0  0
    8.8802   -6.1310   22.8745 C   0  0  0  0  0  0  0  0  0  0  0  0
    7.1127   -7.2664   22.2408 F   0  0  0  0  0  0  0  0  0  0  0  0
    9.2304   -7.3879   23.2219 C   0  0  0  0  0  0  0  0  0  0  0  0
    9.3937   -7.4087   23.3947 C   0  0  0  0  0  0  0  0  0  0  0  0
   10.9026   -0.0245   22.8867 C   0  0  0  0  0  0  0  0  0  0  0  0
   11.8058   -0.9013   22.2627 C   0  0  0  0  0  0  0  0  0  0  0  0
   13.1628   -0.6307   22.2904 C   0  0  0  0  0  0  0  0  0  0  0  0
   14.2666   -1.7485   21.5358 Cl  0  0  0  0  0  0  0  0  0  0  0  0
   13.6751    0.5182   22.8902 C   0  0  0  0  0  0  0  0  0  0  0  0
   12.7898    1.3980   23.4788 C   0  0  0  0  0  0  0  0  0  0  0  0
   11.4261    1.1188   23.5045 C   0  0  0  0  0  0  0  0  0  0  0  0
   10.5269    2.0756   24.2165 C   0  0  0  0  0  0  0  0  0  0  0  0
   10.8456    3.2514   24.4103 O   0  0  0  0  0  0  0  0  0  0  0  0
    6.4243    4.1496   22.2349 H   0  0  0  0  0  0  0  0  0  0  0  0
    7.8926    4.5129   21.3211 H   0  0  0  0  0  0  0  0  0  0  0  0
    7.3755    5.5918   22.6453 H   0  0  0  0  0  0  0  0  0  0  0  0
    9.1123    4.2051   23.5032 H   0  0  0  0  0  0  0  0  0  0  0  0
    8.5278    2.8812   22.7292 H   0  0  0  0  0  0  0  0  0  0  0  0
    7.1911    4.2057   25.0442 H   0  0  0  0  0  0  0  0  0  0  0  0
    6.6331    2.7516   24.2244 H   0  0  0  0  0  0  0  0  0  0  0  0
    9.1429    3.1540   25.9219 H   0  0  0  0  0  0  0  0  0  0  0  0
    7.8948    1.9127   26.1085 H   0  0  0  0  0  0  0  0  0  0  0  0
    7.7418    0.3175   24.2084 H   0  0  0  0  0  0  0  0  0  0  0  0
    9.1162   -0.4432   25.0323 H   0  0  0  0  0  0  0  0  0  0  0  0
    8.0483   -0.7088   18.5391 H   0  0  0  0  0  0  0  0  0  0  0  0
    4.9240    1.5912   17.1331 H   0  0  0  0  0  0  0  0  0  0  0  0
    3.4277    2.8214   18.6798 H   0  0  0  0  0  0  0  0  0  0  0  0
    2.7604    3.4209   20.9909 H   0  0  0  0  0  0  0  0  0  0  0  0
    4.0565    2.5575   22.9270 H   0  0  0  0  0  0  0  0  0  0  0  0
    5.9878    1.0791   22.5652 H   0  0  0  0  0  0  0  0  0  0  0  0
    6.7325   -1.4834   22.4372 H   0  0  0  0  0  0  0  0  0  0  0  0
    7.4458   -2.2795   21.0257 H   0  0  0  0  0  0  0  0  0  0  0  0
    9.6227   -2.0485   21.8249 H   0  0  0  0  0  0  0  0  0  0  0  0
    7.9663   -2.4141   24.3347 H   0  0  0  0  0  0  0  0  0  0  0  0
    9.7350   -2.5597   24.3265 H   0  0  0  0  0  0  0  0  0  0  0  0
    7.6851   -5.0669   24.3701 H   0  0  0  0  0  0  0  0  0  0  0  0
    9.4481   -4.9918   24.6576 H   0  0  0  0  0  0  0  0  0  0  0  0
   10.1620   -8.1391   22.6992 H   0  0  0  0  0  0  0  0  0  0  0  0
    8.5444   -8.3297   23.5106 H   0  0  0  0  0  0  0  0  0  0  0  0
    8.0065   -6.7543   22.4110 H   0  0  0  0  0  0  0  0  0  0  0  0
   10.3157   -7.0592   24.7049 H   0  0  0  0  0  0  0  0  0  0  0  0
   11.4747   -1.7929   21.7408 H   0  0  0  0  0  0  0  0  0  0  0  0
   14.7424    0.7086   22.8863 H   0  0  0  0  0  0  0  0  0  0  0  0
   13.1286    2.3193   23.9372 H   0  0  0  0  0  0  0  0  0  0  0  0
  1  2  1  0
  2  3  1  0
  3  4  1  0
  4  5  1  0
  5  6  1  0
  7  6  1  1
  7  8  1  0
  8  9  2  0
  8 10  1  0
 10 11  1  0
 11 12  2  0
 12 13  1  0
 13 14  2  0
 14 15  1  0
 15 16  2  0
 16 17  1  0
 17 18  2  0
 18 19  1  0
 19 20  2  0
 10 21  1  0
 21 22  1  0
 22 23  1  0
 23 24  1  0
 24 25  1  0
 25 26  1  0
 26 27  1  0
 26 28  1  0
 28 29  1  0
  7 30  1  0
 30 31  2  0
 31 32  1  0
 32 33  1  0
 32 34  2  0
 34 35  1  0
 35 36  2  0
 36 37  1  0
 37 38  2  0
 37  5  1  0
 22  7  1  0
 29 26  1  0
 36 30  1  0
 20 11  1  0
 20 15  1  0
  1 39  1  0
  1 40  1  0
  1 41  1  0
  2 42  1  0
  2 43  1  0
  3 44  1  0
  3 45  1  0
  4 46  1  0
  4 47  1  0
  6 48  1  0
  6 49  1  0
 12 50  1  0
 14 51  1  0
 16 52  1  0
 17 53  1  0
 18 54  1  0
 19 55  1  0
 21 56  1  0
 21 57  1  0
 22 58  1  6
 23 59  1  0
 23 60  1  0
 25 61  1  0
 25 62  1  0
 28 63  1  0
 28 64  1  0
 29 65  1  0
 29 66  1  0
 31 67  1  0
 34 68  1  0
 35 69  1  0
M  CHG  1   2   1
M  END
$$$$
