
     RDKit          3D

 58 63  0  0  0  0  0  0  0  0999 V2000
    4.9542    5.5890   23.5739 C   0  0  0  0  0  0  0  0  0  0  0  0
    6.1394    4.7008   23.7331 C   0  0  0  0  0  0  0  0  0  0  0  0
    6.4173    3.8850   24.8565 C   0  0  0  0  0  0  0  0  0  0  0  0
    7.5815    3.2760   24.5206 C   0  0  0  0  0  0  0  0  0  0  0  0
    8.3952    2.2992   25.3102 C   0  0  0  0  0  0  0  0  0  0  0  0
    9.2694    1.4781   24.5122 N   0  0  0  0  0  0  0  0  0  0  0  0
    8.8509    0.1206   24.2098 C   0  0  0  0  0  0  0  0  0  0  0  0
    9.4277   -0.3750   22.8585 C   0  0  2  0  0  0  0  0  0  0  0  0
    8.8202    0.4585   21.6971 C   0  0  0  0  0  0  0  0  0  0  0  0
    9.1543    1.5550   21.3133 O   0  0  0  0  0  0  0  0  0  0  0  0
    7.7757   -0.2666   21.1594 N   0  0  0  0  0  0  0  0  0  0  0  0
    6.9413    0.2648   20.1412 C   0  0  0  0  0  0  0  0  0  0  0  0
    7.2117   -0.0134   18.8260 C   0  0  0  0  0  0  0  0  0  0  0  0
    6.4861    0.4446   17.7741 N   0  0  0  0  0  0  0  0  0  0  0  0
    5.4483    1.2053   18.0405 C   0  0  0  0  0  0  0  0  0  0  0  0
    5.0327    1.5530   19.3596 C   0  0  0  0  0  0  0  0  0  0  0  0
    3.9062    2.3853   19.6115 C   0  0  0  0  0  0  0  0  0  0  0  0
    3.5461    2.6921   20.8954 C   0  0  0  0  0  0  0  0  0  0  0  0
    4.2863    2.1829   21.9889 C   0  0  0  0  0  0  0  0  0  0  0  0
    5.3808    1.3845   21.7731 C   0  0  0  0  0  0  0  0  0  0  0  0
    5.7896    1.0574   20.4517 C   0  0  0  0  0  0  0  0  0  0  0  0
    7.5661   -1.5481   21.8064 C   0  0  0  0  0  0  0  0  0  0  0  0
    8.9102   -1.7959   22.5038 C   0  0  2  0  0  0  0  0  0  0  0  0
    8.8506   -2.7968   23.6499 C   0  0  0  0  0  0  0  0  0  0  0  0
   10.9277   -0.1896   22.9280 C   0  0  0  0  0  0  0  0  0  0  0  0
   11.8203   -1.0556   22.2886 C   0  0  0  0  0  0  0  0  0  0  0  0
   13.1650   -0.7463   22.2718 C   0  0  0  0  0  0  0  0  0  0  0  0
   14.0011   -1.5783   21.6274 F   0  0  0  0  0  0  0  0  0  0  0  0
   13.6877    0.3945   22.8723 C   0  0  0  0  0  0  0  0  0  0  0  0
   12.8069    1.2414   23.5178 C   0  0  0  0  0  0  0  0  0  0  0  0
   11.4385    0.9629   23.5511 C   0  0  0  0  0  0  0  0  0  0  0  0
   10.5372    1.9302   24.2665 C   0  0  0  0  0  0  0  0  0  0  0  0
   10.9178    3.0311   24.6328 O   0  0  0  0  0  0  0  0  0  0  0  0
    7.9782    3.6696   23.3119 O   0  0  0  0  0  0  0  0  0  0  0  0
    7.0702    4.5812   22.8088 N   0  0  0  0  0  0  0  0  0  0  0  0
    5.1286    6.3759   22.8409 H   0  0  0  0  0  0  0  0  0  0  0  0
    4.0901    5.0016   23.2539 H   0  0  0  0  0  0  0  0  0  0  0  0
    4.6863    6.0345   24.5337 H   0  0  0  0  0  0  0  0  0  0  0  0
    5.8437    3.7698   25.7694 H   0  0  0  0  0  0  0  0  0  0  0  0
    7.6929    1.6634   25.8546 H   0  0  0  0  0  0  0  0  0  0  0  0
    8.9804    2.8280   26.0686 H   0  0  0  0  0  0  0  0  0  0  0  0
    7.7559    0.1049   24.1683 H   0  0  0  0  0  0  0  0  0  0  0  0
    9.1745   -0.5434   25.0228 H   0  0  0  0  0  0  0  0  0  0  0  0
    8.0699   -0.6309   18.5696 H   0  0  0  0  0  0  0  0  0  0  0  0
    4.8731    1.5833   17.1927 H   0  0  0  0  0  0  0  0  0  0  0  0
    3.3468    2.7836   18.7660 H   0  0  0  0  0  0  0  0  0  0  0  0
    2.6860    3.3332   21.0842 H   0  0  0  0  0  0  0  0  0  0  0  0
    3.9865    2.4188   23.0073 H   0  0  0  0  0  0  0  0  0  0  0  0
    5.9510    0.9918   22.6119 H   0  0  0  0  0  0  0  0  0  0  0  0
    7.3306   -2.3168   21.0678 H   0  0  0  0  0  0  0  0  0  0  0  0
    6.7462   -1.5313   22.5440 H   0  0  0  0  0  0  0  0  0  0  0  0
    9.5715   -2.2008   21.7340 H   0  0  0  0  0  0  0  0  0  0  0  0
    8.0979   -2.5082   24.3883 H   0  0  0  0  0  0  0  0  0  0  0  0
    9.8072   -2.8633   24.1777 H   0  0  0  0  0  0  0  0  0  0  0  0
    8.5957   -3.7989   23.2934 H   0  0  0  0  0  0  0  0  0  0  0  0
   11.4900   -1.9687   21.8043 H   0  0  0  0  0  0  0  0  0  0  0  0
   14.7531    0.5994   22.8128 H   0  0  0  0  0  0  0  0  0  0  0  0
   13.1705    2.1372   24.0085 H   0  0  0  0  0  0  0  0  0  0  0  0
  1  2  1  0
  2  3  1  0
  3  4  2  0
  4  5  1  0
  5  6  1  0
  6  7  1  0
  8  7  1  1
  8  9  1  0
  9 10  2  0
  9 11  1  0
 11 12  1  0
 12 13  2  0
 13 14  1  0
 14 15  2  0
 15 16  1  0
 16 17  2  0
 17 18  1  0
 18 19  2  0
 19 20  1  0
 20 21  2  0
 11 22  1  0
 22 23  1  0
 23 24  1  0
  8 25  1  0
 25 26  2  0
 26 27  1  0
 27 28  1  0
 27 29  2  0
 29 30  1  0
 30 31  2  0
 31 32  1  0
 32 33  2  0
  4 34  1  0
 34 35  1  0
 35  2  2  0
 32  6  1  0
 23  8  1  0
 31 25  1  0
 21 12  1  0
 21 16  1  0
  1 36  1  0
  1 37  1  0
  1 38  1  0
  3 39  1  0
  5 40  1  0
  5 41  1  0
  7 42  1  0
  7 43  1  0
 13 44  1  0
 15 45  1  0
 17 46  1  0
 18 47  1  0
 19 48  1  0
 20 49  1  0
 22 50  1  0
 22 51  1  0
 23 52  1  6
 24 53  1  0
 24 54  1  0
 24 55  1  0
 26 56  1  0
 29 57  1  0
 30 58  1  0
M  END
$$$$
