
     RDKit          3D

 72 77  0  0  0  0  0  0  0  0999 V2000
    8.0843    6.1538   22.1664 C   0  0  0  0  0  0  0  0  0  0  0  0
    7.7225    4.7611   21.8104 N   0  0  0  0  0  0  0  0  0  0  0  0
    6.7904    4.1080   22.7662 C   0  0  0  0  0  0  0  0  0  0  0  0
    7.5436    3.6069   24.0014 C   0  0  0  0  0  0  0  0  0  0  0  0
    8.4842    2.5474   23.6358 N   0  0  0  0  0  0  0  0  0  0  0  0
    8.0021    1.1800   23.6621 C   0  0  0  0  0  0  0  0  0  0  0  0
    8.5233    0.2983   22.4864 C   0  0  2  0  0  0  0  0  0  0  0  0
    7.7940    0.6983   21.1871 C   0  0  0  0  0  0  0  0  0  0  0  0
    7.9627    1.7067   20.5337 O   0  0  0  0  0  0  0  0  0  0  0  0
    6.8642   -0.2777   20.8950 N   0  0  0  0  0  0  0  0  0  0  0  0
    5.9079   -0.1032   19.8656 C   0  0  0  0  0  0  0  0  0  0  0  0
    6.1101   -0.6911   18.6461 C   0  0  0  0  0  0  0  0  0  0  0  0
    5.2849   -0.5438   17.5815 N   0  0  0  0  0  0  0  0  0  0  0  0
    4.2116    0.1932   17.7482 C   0  0  0  0  0  0  0  0  0  0  0  0
    3.8665    0.8368   18.9732 C   0  0  0  0  0  0  0  0  0  0  0  0
    2.7009    1.6378   19.1118 C   0  0  0  0  0  0  0  0  0  0  0  0
    2.3846    2.2032   20.3162 C   0  0  0  0  0  0  0  0  0  0  0  0
    3.2167    2.0099   21.4400 C   0  0  0  0  0  0  0  0  0  0  0  0
    4.3644    1.2657   21.3236 C   0  0  0  0  0  0  0  0  0  0  0  0
    4.7236    0.6670   20.0815 C   0  0  0  0  0  0  0  0  0  0  0  0
    5.0017    1.1399   22.1928 H   0  0  0  0  0  0  0  0  0  0  0  0
    2.9508    2.4558   22.3943 H   0  0  0  0  0  0  0  0  0  0  0  0
    1.4927    2.8135   20.4168 H   0  0  0  0  0  0  0  0  0  0  0  0
    2.0772    1.8081   18.2402 H   0  0  0  0  0  0  0  0  0  0  0  0
    3.5399    0.2930   16.8950 H   0  0  0  0  0  0  0  0  0  0  0  0
    6.9931   -1.3084   18.4877 H   0  0  0  0  0  0  0  0  0  0  0  0
    6.7390   -1.3025   21.9110 C   0  0  0  0  0  0  0  0  0  0  0  0
    8.0601   -1.1739   22.6720 C   0  0  2  0  0  0  0  0  0  0  0  0
    7.9669   -1.6470   24.1186 C   0  0  0  0  0  0  0  0  0  0  0  0
    9.1791   -1.3986   24.8099 O   0  0  0  0  0  0  0  0  0  0  0  0
   10.1321   -2.4184   24.6371 C   0  0  0  0  0  0  0  0  0  0  0  0
    9.9837   -3.4692   25.7291 C   0  0  0  0  0  0  0  0  0  0  0  0
   10.4928   -2.9753   27.1182 C   0  0  0  0  0  0  0  0  0  0  0  0
   11.7677   -4.2661   27.1171 S   0  0  0  0  0  0  0  0  0  0  0  0
   13.1067   -3.7135   26.9876 O   0  0  0  0  0  0  0  0  0  0  0  0
   11.4608   -5.2915   28.1030 O   0  0  0  0  0  0  0  0  0  0  0  0
   10.9976   -4.6076   25.5132 C   0  0  0  0  0  0  0  0  0  0  0  0
   10.6651   -5.6441   25.4417 H   0  0  0  0  0  0  0  0  0  0  0  0
   11.6583   -4.3432   24.6944 H   0  0  0  0  0  0  0  0  0  0  0  0
   10.9463   -1.9801   27.1138 H   0  0  0  0  0  0  0  0  0  0  0  0
    9.8072   -3.0874   27.9636 H   0  0  0  0  0  0  0  0  0  0  0  0
    8.9585   -3.8432   25.7829 H   0  0  0  0  0  0  0  0  0  0  0  0
   11.1352   -1.9654   24.6790 H   0  0  0  0  0  0  0  0  0  0  0  0
   10.0480   -2.8870   23.6416 H   0  0  0  0  0  0  0  0  0  0  0  0
    7.1855   -1.0909   24.6507 H   0  0  0  0  0  0  0  0  0  0  0  0
    7.6952   -2.7123   24.1718 H   0  0  0  0  0  0  0  0  0  0  0  0
    8.7932   -1.7862   22.1439 H   0  0  0  0  0  0  0  0  0  0  0  0
    6.6078   -2.2820   21.4422 H   0  0  0  0  0  0  0  0  0  0  0  0
    5.8719   -1.1322   22.5717 H   0  0  0  0  0  0  0  0  0  0  0  0
   10.0279    0.4887   22.3914 C   0  0  0  0  0  0  0  0  0  0  0  0
   10.9007   -0.5002   21.9238 C   0  0  0  0  0  0  0  0  0  0  0  0
   12.2676   -0.2731   21.9061 C   0  0  0  0  0  0  0  0  0  0  0  0
   13.3120   -1.5489   21.3484 Cl  0  0  0  0  0  0  0  0  0  0  0  0
   12.8265    0.9402   22.3049 C   0  0  0  0  0  0  0  0  0  0  0  0
   11.9650    1.9408   22.6998 C   0  0  0  0  0  0  0  0  0  0  0  0
   10.5897    1.7206   22.7492 C   0  0  0  0  0  0  0  0  0  0  0  0
    9.7017    2.8585   23.1279 C   0  0  0  0  0  0  0  0  0  0  0  0
   10.0449    4.0237   22.9164 O   0  0  0  0  0  0  0  0  0  0  0  0
   12.3351    2.9219   22.9769 H   0  0  0  0  0  0  0  0  0  0  0  0
   13.9010    1.0995   22.2952 H   0  0  0  0  0  0  0  0  0  0  0  0
   10.5402   -1.4562   21.5598 H   0  0  0  0  0  0  0  0  0  0  0  0
    6.9052    1.1904   23.6469 H   0  0  0  0  0  0  0  0  0  0  0  0
    8.3259    0.7039   24.5889 H   0  0  0  0  0  0  0  0  0  0  0  0
    8.0932    4.4152   24.4987 H   0  0  0  0  0  0  0  0  0  0  0  0
    6.8410    3.2083   24.7396 H   0  0  0  0  0  0  0  0  0  0  0  0
    6.3121    3.2660   22.2579 H   0  0  0  0  0  0  0  0  0  0  0  0
    5.9999    4.8106   23.0472 H   0  0  0  0  0  0  0  0  0  0  0  0
    7.3676    4.7154   20.8398 H   0  0  0  0  0  0  0  0  0  0  0  0
    8.6195    4.2565   21.7832 H   0  0  0  0  0  0  0  0  0  0  0  0
    8.5198    6.6572   21.3006 H   0  0  0  0  0  0  0  0  0  0  0  0
    8.8275    6.1401   22.9647 H   0  0  0  0  0  0  0  0  0  0  0  0
    7.2039    6.7073   22.4983 H   0  0  0  0  0  0  0  0  0  0  0  0
  1  2  1  0
  2  3  1  0
  3  4  1  0
  4  5  1  0
  5  6  1  0
  7  6  1  1
  7  8  1  0
  8  9  2  0
  8 10  1  0
 10 11  1  0
 11 12  2  0
 12 13  1  0
 13 14  2  0
 14 15  1  0
 15 16  2  0
 16 17  1  0
 17 18  2  0
 18 19  1  0
 19 20  2  0
 19 21  1  0
 18 22  1  0
 17 23  1  0
 16 24  1  0
 14 25  1  0
 12 26  1  0
 10 27  1  0
 27 28  1  0
 28 29  1  0
 29 30  1  0
 30 31  1  0
 31 32  1  0
 32 33  1  0
 33 34  1  0
 34 35  2  0
 34 36  2  0
 34 37  1  0
 37 38  1  0
 37 39  1  0
 33 40  1  0
 33 41  1  0
 32 42  1  0
 31 43  1  0
 31 44  1  0
 29 45  1  0
 29 46  1  0
 28 47  1  6
 27 48  1  0
 27 49  1  0
  7 50  1  0
 50 51  2  0
 51 52  1  0
 52 53  1  0
 52 54  2  0
 54 55  1  0
 55 56  2  0
 56 57  1  0
 57 58  2  0
 55 59  1  0
 54 60  1  0
 51 61  1  0
  6 62  1  0
  6 63  1  0
  4 64  1  0
  4 65  1  0
  3 66  1  0
  3 67  1  0
  2 68  1  0
  2 69  1  0
  1 70  1  0
  1 71  1  0
  1 72  1  0
 57  5  1  0
 28  7  1  0
 37 32  1  0
 56 50  1  0
 20 11  1  0
 20 15  1  0
M  CHG  1   2   1
M  END
>  <cnnaffinities>  (1) 
[6.7765]

>  <score>  (1) 
6.7765

>  <index>  (1) 
38

>  <Smiles>  (1) 
C([N+](C(C(N1C([C@@]2(C(=O)N(c3c(nc(c4c(c(c(c(c34)[H])[H])[H])[H])[H])[H])C([C@@]2(C(OC(C2(C(S(=O)(=O)C2([H])[H])([H])[H])[H])([H])[H])([H])[H])[H])([H])[H])c2c(c(Cl)c(c(c2C1=O)[H])[H])[H])([H])[H])([H])[H])([H])[H])([H])[H])([H])([H])[H]

>  <h>  (1) 
<NA>

>  <Training>  (1) 
True

>  <Success>  (1) 
True

>  <enamine_searched>  (1) 
False

>  <enamine_id>  (1) 
nan

$$$$
