
     RDKit          3D

 70 75  0  0  0  0  0  0  0  0999 V2000
    6.0589    4.1252   21.6467 C   0  0  0  0  0  0  0  0  0  0  0  0
    7.5184    4.1881   21.4742 N   0  0  0  0  0  0  0  0  0  0  0  0
    8.2370    4.8352   22.5990 C   0  0  0  0  0  0  0  0  0  0  0  0
    8.4357    3.8999   23.7941 C   0  0  0  0  0  0  0  0  0  0  0  0
    9.0737    2.6507   23.3852 N   0  0  0  0  0  0  0  0  0  0  0  0
    8.3941    1.3814   23.5860 C   0  0  0  0  0  0  0  0  0  0  0  0
    8.7097    0.3591   22.4586 C   0  0  2  0  0  0  0  0  0  0  0  0
    7.9542    0.7549   21.1780 C   0  0  0  0  0  0  0  0  0  0  0  0
    8.1749    1.7695   20.5329 O   0  0  0  0  0  0  0  0  0  0  0  0
    6.9607   -0.1516   20.9074 N   0  0  0  0  0  0  0  0  0  0  0  0
    6.0083    0.0280   19.8564 C   0  0  0  0  0  0  0  0  0  0  0  0
    6.2351   -0.5324   18.6249 C   0  0  0  0  0  0  0  0  0  0  0  0
    5.3991   -0.4205   17.5626 N   0  0  0  0  0  0  0  0  0  0  0  0
    4.2970    0.2735   17.7201 C   0  0  0  0  0  0  0  0  0  0  0  0
    3.9240    0.8934   18.9484 C   0  0  0  0  0  0  0  0  0  0  0  0
    2.7279    1.6503   19.0824 C   0  0  0  0  0  0  0  0  0  0  0  0
    2.3707    2.1829   20.2903 C   0  0  0  0  0  0  0  0  0  0  0  0
    3.2048    2.0065   21.4154 C   0  0  0  0  0  0  0  0  0  0  0  0
    4.3823    1.3047   21.3006 C   0  0  0  0  0  0  0  0  0  0  0  0
    4.7838    0.7403   20.0613 C   0  0  0  0  0  0  0  0  0  0  0  0
    5.0380    1.2019   22.1598 H   0  0  0  0  0  0  0  0  0  0  0  0
    2.9220    2.4403   22.3683 H   0  0  0  0  0  0  0  0  0  0  0  0
    1.4480    2.7470   20.3961 H   0  0  0  0  0  0  0  0  0  0  0  0
    2.1144    1.8055   18.1998 H   0  0  0  0  0  0  0  0  0  0  0  0
    3.6284    0.3744   16.8614 H   0  0  0  0  0  0  0  0  0  0  0  0
    7.1362   -1.1165   18.4517 H   0  0  0  0  0  0  0  0  0  0  0  0
    6.7565   -1.0968   21.9924 C   0  0  0  0  0  0  0  0  0  0  0  0
    8.1001   -1.0425   22.7379 C   0  0  2  0  0  0  0  0  0  0  0  0
    8.0142   -1.4631   24.2052 C   0  0  0  0  0  0  0  0  0  0  0  0
    7.6463   -2.8180   24.3432 O   0  0  0  0  0  0  0  0  0  0  0  0
    8.7085   -3.7546   24.4043 C   0  0  0  0  0  0  0  0  0  0  0  0
    8.1107   -5.0841   23.9882 C   0  0  0  0  0  0  0  0  0  0  0  0
    8.7809   -6.4085   24.3777 C   0  0  0  0  0  0  0  0  0  0  0  0
    7.5964   -6.8660   25.0404 O   0  0  0  0  0  0  0  0  0  0  0  0
    6.9593   -5.5966   24.8691 C   0  0  0  0  0  0  0  0  0  0  0  0
    6.8625   -5.0550   25.8192 H   0  0  0  0  0  0  0  0  0  0  0  0
    5.9642   -5.6830   24.4212 H   0  0  0  0  0  0  0  0  0  0  0  0
    9.0619   -7.0912   23.5676 H   0  0  0  0  0  0  0  0  0  0  0  0
    9.6309   -6.3262   25.0675 H   0  0  0  0  0  0  0  0  0  0  0  0
    7.8590   -5.0334   22.9276 H   0  0  0  0  0  0  0  0  0  0  0  0
    9.5310   -3.4748   23.7298 H   0  0  0  0  0  0  0  0  0  0  0  0
    9.1204   -3.7828   25.4253 H   0  0  0  0  0  0  0  0  0  0  0  0
    8.9630   -1.2640   24.7284 H   0  0  0  0  0  0  0  0  0  0  0  0
    7.2296   -0.8775   24.7042 H   0  0  0  0  0  0  0  0  0  0  0  0
    8.7419   -1.7647   22.2326 H   0  0  0  0  0  0  0  0  0  0  0  0
    6.5498   -2.0977   21.6043 H   0  0  0  0  0  0  0  0  0  0  0  0
    5.9067   -0.8117   22.6333 H   0  0  0  0  0  0  0  0  0  0  0  0
   10.2142    0.3481   22.2212 C   0  0  0  0  0  0  0  0  0  0  0  0
   10.8182   -0.7255   21.5542 C   0  0  0  0  0  0  0  0  0  0  0  0
   12.1892   -0.7644   21.3983 C   0  0  0  0  0  0  0  0  0  0  0  0
   12.8853   -2.1001   20.5337 Cl  0  0  0  0  0  0  0  0  0  0  0  0
   13.0042    0.2754   21.8377 C   0  0  0  0  0  0  0  0  0  0  0  0
   12.4107    1.3782   22.4173 C   0  0  0  0  0  0  0  0  0  0  0  0
   11.0238    1.4335   22.5850 C   0  0  0  0  0  0  0  0  0  0  0  0
   10.4132    2.7043   23.1039 C   0  0  0  0  0  0  0  0  0  0  0  0
   11.0724    3.7276   23.2513 O   0  0  0  0  0  0  0  0  0  0  0  0
   13.0147    2.2144   22.7536 H   0  0  0  0  0  0  0  0  0  0  0  0
   14.0737    0.2381   21.6727 H   0  0  0  0  0  0  0  0  0  0  0  0
   10.2365   -1.5209   21.1026 H   0  0  0  0  0  0  0  0  0  0  0  0
    7.3150    1.5750   23.6084 H   0  0  0  0  0  0  0  0  0  0  0  0
    8.6943    0.9554   24.5552 H   0  0  0  0  0  0  0  0  0  0  0  0
    7.4912    3.6724   24.3060 H   0  0  0  0  0  0  0  0  0  0  0  0
    9.0945    4.4082   24.4979 H   0  0  0  0  0  0  0  0  0  0  0  0
    7.6968    5.7367   22.9172 H   0  0  0  0  0  0  0  0  0  0  0  0
    9.2241    5.1361   22.2438 H   0  0  0  0  0  0  0  0  0  0  0  0
    7.7690    4.6962   20.6138 H   0  0  0  0  0  0  0  0  0  0  0  0
    7.9002    3.2340   21.3323 H   0  0  0  0  0  0  0  0  0  0  0  0
    5.5724    3.8562   20.7060 H   0  0  0  0  0  0  0  0  0  0  0  0
    5.6542    5.0775   22.0095 H   0  0  0  0  0  0  0  0  0  0  0  0
    5.8126    3.3444   22.3703 H   0  0  0  0  0  0  0  0  0  0  0  0
  1  2  1  0
  2  3  1  0
  3  4  1  0
  4  5  1  0
  5  6  1  0
  7  6  1  1
  7  8  1  0
  8  9  2  0
  8 10  1  0
 10 11  1  0
 11 12  2  0
 12 13  1  0
 13 14  2  0
 14 15  1  0
 15 16  2  0
 16 17  1  0
 17 18  2  0
 18 19  1  0
 19 20  2  0
 19 21  1  0
 18 22  1  0
 17 23  1  0
 16 24  1  0
 14 25  1  0
 12 26  1  0
 10 27  1  0
 27 28  1  0
 28 29  1  0
 29 30  1  0
 30 31  1  0
 31 32  1  0
 32 33  1  0
 33 34  1  0
 34 35  1  0
 35 36  1  0
 35 37  1  0
 33 38  1  0
 33 39  1  0
 32 40  1  0
 31 41  1  0
 31 42  1  0
 29 43  1  0
 29 44  1  0
 28 45  1  6
 27 46  1  0
 27 47  1  0
  7 48  1  0
 48 49  2  0
 49 50  1  0
 50 51  1  0
 50 52  2  0
 52 53  1  0
 53 54  2  0
 54 55  1  0
 55 56  2  0
 53 57  1  0
 52 58  1  0
 49 59  1  0
  6 60  1  0
  6 61  1  0
  4 62  1  0
  4 63  1  0
  3 64  1  0
  3 65  1  0
  2 66  1  0
  2 67  1  0
  1 68  1  0
  1 69  1  0
  1 70  1  0
 55  5  1  0
 28  7  1  0
 35 32  1  0
 54 48  1  0
 20 11  1  0
 20 15  1  0
M  CHG  1   2   1
M  END
>  <cnnaffinities>  (1) 
[6.41269]

>  <score>  (1) 
6.41269

>  <index>  (1) 
24

>  <Smiles>  (1) 
C([N+](C(C(N1C([C@@]2(C(=O)N(c3c(nc(c4c(c(c(c(c34)[H])[H])[H])[H])[H])[H])C([C@@]2(C(OC(C2(C(OC2([H])[H])([H])[H])[H])([H])[H])([H])[H])[H])([H])[H])c2c(c(Cl)c(c(c2C1=O)[H])[H])[H])([H])[H])([H])[H])([H])[H])([H])[H])([H])([H])[H]

>  <h>  (1) 
<NA>

>  <Training>  (1) 
True

>  <Success>  (1) 
True

>  <enamine_searched>  (1) 
False

>  <enamine_id>  (1) 
nan

$$$$
