
     RDKit          3D

 62 67  0  0  0  0  0  0  0  0999 V2000
    8.1331   -1.7551   24.0810 C   0  0  0  0  0  0  0  0  0  0  0  0
    8.1714   -1.1641   22.6769 C   0  0  1  0  0  0  0  0  0  0  0  0
    6.8974   -1.3931   21.8583 C   0  0  0  0  0  0  0  0  0  0  0  0
    6.8863   -0.2630   20.9554 N   0  0  0  0  0  0  0  0  0  0  0  0
    5.9235   -0.1172   19.9356 C   0  0  0  0  0  0  0  0  0  0  0  0
    6.0980   -0.7660   18.7439 C   0  0  0  0  0  0  0  0  0  0  0  0
    5.2725   -0.6406   17.6806 N   0  0  0  0  0  0  0  0  0  0  0  0
    4.2184    0.1270   17.8271 C   0  0  0  0  0  0  0  0  0  0  0  0
    3.8875    0.8037   19.0354 C   0  0  0  0  0  0  0  0  0  0  0  0
    2.7175    1.5988   19.1562 C   0  0  0  0  0  0  0  0  0  0  0  0
    2.3913    2.1796   20.3497 C   0  0  0  0  0  0  0  0  0  0  0  0
    3.2306    2.0174   21.4746 C   0  0  0  0  0  0  0  0  0  0  0  0
    4.3839    1.2771   21.3750 C   0  0  0  0  0  0  0  0  0  0  0  0
    4.7494    0.6647   20.1423 C   0  0  0  0  0  0  0  0  0  0  0  0
    5.0236    1.1561   22.2442 H   0  0  0  0  0  0  0  0  0  0  0  0
    2.9620    2.4847   22.4171 H   0  0  0  0  0  0  0  0  0  0  0  0
    1.4762    2.7581   20.4450 H   0  0  0  0  0  0  0  0  0  0  0  0
    2.0955    1.7354   18.2772 H   0  0  0  0  0  0  0  0  0  0  0  0
    3.5497    0.2216   16.9707 H   0  0  0  0  0  0  0  0  0  0  0  0
    6.9638   -1.4106   18.6060 H   0  0  0  0  0  0  0  0  0  0  0  0
    7.7001    0.7802   21.3254 C   0  0  0  0  0  0  0  0  0  0  0  0
    7.7411    1.8596   20.7560 O   0  0  0  0  0  0  0  0  0  0  0  0
    8.5068    0.3511   22.5662 C   0  0  1  0  0  0  0  0  0  0  0  0
    7.9975    1.1519   23.8043 C   0  0  0  0  0  0  0  0  0  0  0  0
    8.3973    2.5474   23.7834 N   0  0  0  0  0  0  0  0  0  0  0  0
    7.4416    3.5624   24.2099 C   0  0  0  0  0  0  0  0  0  0  0  0
    6.5791    4.0407   23.0519 C   0  0  0  0  0  0  0  0  0  0  0  0
    7.3911    4.8404   22.0972 N   0  0  0  0  0  0  0  0  0  0  0  0
    7.8632    6.2361   22.5608 C   0  0  0  0  0  0  0  0  0  0  0  0
    7.0880    6.9403   21.4154 C   0  0  0  0  0  0  0  0  0  0  0  0
    6.6728    5.5242   20.9266 C   0  0  0  0  0  0  0  0  0  0  0  0
    5.6078    5.2981   20.8998 H   0  0  0  0  0  0  0  0  0  0  0  0
    7.1422    5.2088   19.9992 H   0  0  0  0  0  0  0  0  0  0  0  0
    6.2579    7.5563   21.7689 H   0  0  0  0  0  0  0  0  0  0  0  0
    7.6934    7.5100   20.7125 H   0  0  0  0  0  0  0  0  0  0  0  0
    8.9478    6.2749   22.5174 H   0  0  0  0  0  0  0  0  0  0  0  0
    7.5058    6.4552   23.5665 H   0  0  0  0  0  0  0  0  0  0  0  0
    8.1707    4.2695   21.7366 H   0  0  0  0  0  0  0  0  0  0  0  0
    6.1801    3.1891   22.5002 H   0  0  0  0  0  0  0  0  0  0  0  0
    5.7413    4.6434   23.4120 H   0  0  0  0  0  0  0  0  0  0  0  0
    8.0130    4.3858   24.6471 H   0  0  0  0  0  0  0  0  0  0  0  0
    6.8185    3.1425   25.0062 H   0  0  0  0  0  0  0  0  0  0  0  0
    9.6104    2.9481   23.3175 C   0  0  0  0  0  0  0  0  0  0  0  0
    9.9509    4.1306   23.3094 O   0  0  0  0  0  0  0  0  0  0  0  0
   10.5051    1.8763   22.7650 C   0  0  0  0  0  0  0  0  0  0  0  0
   11.8725    2.1386   22.6570 C   0  0  0  0  0  0  0  0  0  0  0  0
   12.7641    1.1699   22.2312 C   0  0  0  0  0  0  0  0  0  0  0  0
   12.2410   -0.0518   21.8191 C   0  0  0  0  0  0  0  0  0  0  0  0
   13.2992   -1.3309   21.2868 Cl  0  0  0  0  0  0  0  0  0  0  0  0
   10.8815   -0.2999   21.8364 C   0  0  0  0  0  0  0  0  0  0  0  0
    9.9874    0.6342   22.3806 C   0  0  0  0  0  0  0  0  0  0  0  0
   10.5479   -1.2282   21.3869 H   0  0  0  0  0  0  0  0  0  0  0  0
   13.8388    1.3356   22.1988 H   0  0  0  0  0  0  0  0  0  0  0  0
   12.2338    3.1112   22.9597 H   0  0  0  0  0  0  0  0  0  0  0  0
    8.3714    0.6824   24.7245 H   0  0  0  0  0  0  0  0  0  0  0  0
    6.9027    1.1065   23.8270 H   0  0  0  0  0  0  0  0  0  0  0  0
    5.9939   -1.4369   22.4858 H   0  0  0  0  0  0  0  0  0  0  0  0
    6.9430   -2.3303   21.2955 H   0  0  0  0  0  0  0  0  0  0  0  0
    8.9563   -1.6819   22.1287 H   0  0  0  0  0  0  0  0  0  0  0  0
    9.0712   -1.5446   24.6092 H   0  0  0  0  0  0  0  0  0  0  0  0
    7.3052   -1.3441   24.6732 H   0  0  0  0  0  0  0  0  0  0  0  0
    8.0001   -2.8410   24.0231 H   0  0  0  0  0  0  0  0  0  0  0  0
  1  2  1  0
  2  3  1  0
  3  4  1  0
  4  5  1  0
  5  6  2  0
  6  7  1  0
  7  8  2  0
  8  9  1  0
  9 10  2  0
 10 11  1  0
 11 12  2  0
 12 13  1  0
 13 14  2  0
 13 15  1  0
 12 16  1  0
 11 17  1  0
 10 18  1  0
  8 19  1  0
  6 20  1  0
  4 21  1  0
 21 22  2  0
 21 23  1  0
 23 24  1  1
 24 25  1  0
 25 26  1  0
 26 27  1  0
 27 28  1  0
 28 29  1  0
 29 30  1  0
 30 31  1  0
 31 32  1  0
 31 33  1  0
 30 34  1  0
 30 35  1  0
 29 36  1  0
 29 37  1  0
 28 38  1  0
 27 39  1  0
 27 40  1  0
 26 41  1  0
 26 42  1  0
 25 43  1  0
 43 44  2  0
 43 45  1  0
 45 46  2  0
 46 47  1  0
 47 48  2  0
 48 49  1  0
 48 50  1  0
 50 51  2  0
 50 52  1  0
 47 53  1  0
 46 54  1  0
 24 55  1  0
 24 56  1  0
  3 57  1  0
  3 58  1  0
  2 59  1  6
  1 60  1  0
  1 61  1  0
  1 62  1  0
 23  2  1  0
 31 28  1  0
 51 45  1  0
 14  5  1  0
 51 23  1  0
 14  9  1  0
M  CHG  1  28   1
M  END
>  <cnnaffinities>  (1) 
[6.32848]

>  <score>  (1) 
6.32848

>  <index>  (1) 
90

>  <Smiles>  (1) 
C([C@]1(C(N(c2c(nc(c3c(c(c(c(c23)[H])[H])[H])[H])[H])[H])C(=O)[C@]21C(N(C(C([N+]1(C(C(C1([H])[H])([H])[H])([H])[H])[H])([H])[H])([H])[H])C(=O)c1c(c(c(Cl)c(c21)[H])[H])[H])([H])[H])([H])[H])[H])([H])([H])[H]

>  <h>  (1) 
<NA>

>  <Training>  (1) 
True

>  <Success>  (1) 
True

>  <enamine_searched>  (1) 
False

>  <enamine_id>  (1) 
nan

$$$$
