
     RDKit          3D

 72 77  0  0  0  0  0  0  0  0999 V2000
    3.7135    6.6547   20.7260 C   0  0  0  0  0  0  0  0  0  0  0  0
    3.8684    5.9720   22.0755 C   0  0  1  0  0  0  0  0  0  0  0  0
    4.9888    4.9257   22.1049 C   0  0  0  0  0  0  0  0  0  0  0  0
    6.3552    5.5515   22.2021 N   0  0  2  0  0  0  0  0  0  0  0  0
    7.4556    4.5136   22.2014 C   0  0  0  0  0  0  0  0  0  0  0  0
    7.6609    3.7842   23.5392 C   0  0  0  0  0  0  0  0  0  0  0  0
    8.5470    2.6387   23.4019 N   0  0  0  0  0  0  0  0  0  0  0  0
    8.0610    1.2908   23.6259 C   0  0  0  0  0  0  0  0  0  0  0  0
    8.5425    0.3064   22.5317 C   0  0  2  0  0  0  0  0  0  0  0  0
    7.8316    0.6255   21.1960 C   0  0  0  0  0  0  0  0  0  0  0  0
    8.0595    1.5475   20.4426 O   0  0  0  0  0  0  0  0  0  0  0  0
    6.8550   -0.3189   20.9805 N   0  0  0  0  0  0  0  0  0  0  0  0
    5.8892   -0.1564   19.9540 C   0  0  0  0  0  0  0  0  0  0  0  0
    6.0637   -0.8023   18.7582 C   0  0  0  0  0  0  0  0  0  0  0  0
    5.2393   -0.6690   17.6927 N   0  0  0  0  0  0  0  0  0  0  0  0
    4.1829    0.0925   17.8418 C   0  0  0  0  0  0  0  0  0  0  0  0
    3.8348    0.7584   19.0535 C   0  0  0  0  0  0  0  0  0  0  0  0
    2.6473    1.5286   19.1837 C   0  0  0  0  0  0  0  0  0  0  0  0
    2.3322    2.1362   20.3652 C   0  0  0  0  0  0  0  0  0  0  0  0
    3.2067    2.0247   21.4678 C   0  0  0  0  0  0  0  0  0  0  0  0
    4.3709    1.3018   21.3670 C   0  0  0  0  0  0  0  0  0  0  0  0
    4.7158    0.6399   20.1523 C   0  0  0  0  0  0  0  0  0  0  0  0
    5.0404    1.2356   22.2182 H   0  0  0  0  0  0  0  0  0  0  0  0
    2.9741    2.5474   22.3925 H   0  0  0  0  0  0  0  0  0  0  0  0
    1.4120    2.7138   20.4526 H   0  0  0  0  0  0  0  0  0  0  0  0
    2.0055    1.6413   18.3181 H   0  0  0  0  0  0  0  0  0  0  0  0
    3.5227    0.1867   16.9808 H   0  0  0  0  0  0  0  0  0  0  0  0
    6.9142   -1.4662   18.6134 H   0  0  0  0  0  0  0  0  0  0  0  0
    6.7493   -1.3178   22.0212 C   0  0  0  0  0  0  0  0  0  0  0  0
    8.0608   -1.1560   22.8161 C   0  0  2  0  0  0  0  0  0  0  0  0
    7.9006   -1.5659   24.2835 C   0  0  0  0  0  0  0  0  0  0  0  0
    8.8184   -1.4085   24.8626 H   0  0  0  0  0  0  0  0  0  0  0  0
    7.0976   -0.9931   24.7648 H   0  0  0  0  0  0  0  0  0  0  0  0
    7.6315   -2.6256   24.3617 H   0  0  0  0  0  0  0  0  0  0  0  0
    8.8072   -1.8092   22.3567 H   0  0  0  0  0  0  0  0  0  0  0  0
    5.8696   -1.1414   22.6622 H   0  0  0  0  0  0  0  0  0  0  0  0
    6.6359   -2.3147   21.5801 H   0  0  0  0  0  0  0  0  0  0  0  0
   10.0408    0.4863   22.3696 C   0  0  0  0  0  0  0  0  0  0  0  0
   10.8035   -0.4989   21.7321 C   0  0  0  0  0  0  0  0  0  0  0  0
   12.1682   -0.3310   21.5907 C   0  0  0  0  0  0  0  0  0  0  0  0
   13.0772   -1.5708   20.7731 Cl  0  0  0  0  0  0  0  0  0  0  0  0
   12.8062    0.8378   22.0059 C   0  0  0  0  0  0  0  0  0  0  0  0
   12.0466    1.8462   22.5671 C   0  0  0  0  0  0  0  0  0  0  0  0
   10.6709    1.6883   22.7280 C   0  0  0  0  0  0  0  0  0  0  0  0
    9.8776    2.8709   23.2151 C   0  0  0  0  0  0  0  0  0  0  0  0
   10.3905    3.9700   23.3880 O   0  0  0  0  0  0  0  0  0  0  0  0
   12.4825    2.7924   22.8731 H   0  0  0  0  0  0  0  0  0  0  0  0
   13.8685    0.9671   21.8346 H   0  0  0  0  0  0  0  0  0  0  0  0
   10.3460   -1.3727   21.2792 H   0  0  0  0  0  0  0  0  0  0  0  0
    8.4082    0.9145   24.6018 H   0  0  0  0  0  0  0  0  0  0  0  0
    6.9673    1.3213   23.6185 H   0  0  0  0  0  0  0  0  0  0  0  0
    6.7028    3.4013   23.9081 H   0  0  0  0  0  0  0  0  0  0  0  0
    8.0836    4.4606   24.2882 H   0  0  0  0  0  0  0  0  0  0  0  0
    7.2117    3.7797   21.4257 H   0  0  0  0  0  0  0  0  0  0  0  0
    8.3872    5.0087   21.9086 H   0  0  0  0  0  0  0  0  0  0  0  0
    6.4145    6.5830   23.3214 C   0  0  1  0  0  0  0  0  0  0  0  0
    7.7454    7.3202   23.3221 C   0  0  0  0  0  0  0  0  0  0  0  0
    7.9273    7.7745   22.3384 H   0  0  0  0  0  0  0  0  0  0  0  0
    8.5845    6.6569   23.5517 H   0  0  0  0  0  0  0  0  0  0  0  0
    7.7315    8.1196   24.0683 H   0  0  0  0  0  0  0  0  0  0  0  0
    5.2469    7.5524   23.1545 C   0  0  0  0  0  0  0  0  0  0  0  0
    4.0032    6.8884   23.1511 O   0  0  0  0  0  0  0  0  0  0  0  0
    5.3902    8.1521   22.2394 H   0  0  0  0  0  0  0  0  0  0  0  0
    5.2025    8.2352   24.0082 H   0  0  0  0  0  0  0  0  0  0  0  0
    6.2581    6.0521   24.2664 H   0  0  0  0  0  0  0  0  0  0  0  0
    6.4966    6.0867   21.3161 H   0  0  0  0  0  0  0  0  0  0  0  0
    4.9494    4.2920   21.2088 H   0  0  0  0  0  0  0  0  0  0  0  0
    4.8372    4.2930   22.9876 H   0  0  0  0  0  0  0  0  0  0  0  0
    2.9311    5.4492   22.2913 H   0  0  0  0  0  0  0  0  0  0  0  0
    3.3867    5.8928   20.0141 H   0  0  0  0  0  0  0  0  0  0  0  0
    2.9494    7.4366   20.7719 H   0  0  0  0  0  0  0  0  0  0  0  0
    4.6461    7.1010   20.3591 H   0  0  0  0  0  0  0  0  0  0  0  0
  1  2  1  0
  2  3  1  0
  3  4  1  0
  4  5  1  0
  5  6  1  0
  6  7  1  0
  7  8  1  0
  9  8  1  1
  9 10  1  0
 10 11  2  0
 10 12  1  0
 12 13  1  0
 13 14  2  0
 14 15  1  0
 15 16  2  0
 16 17  1  0
 17 18  2  0
 18 19  1  0
 19 20  2  0
 20 21  1  0
 21 22  2  0
 21 23  1  0
 20 24  1  0
 19 25  1  0
 18 26  1  0
 16 27  1  0
 14 28  1  0
 12 29  1  0
 29 30  1  0
 30 31  1  0
 31 32  1  0
 31 33  1  0
 31 34  1  0
 30 35  1  6
 29 36  1  0
 29 37  1  0
  9 38  1  0
 38 39  2  0
 39 40  1  0
 40 41  1  0
 40 42  2  0
 42 43  1  0
 43 44  2  0
 44 45  1  0
 45 46  2  0
 43 47  1  0
 42 48  1  0
 39 49  1  0
  8 50  1  0
  8 51  1  0
  6 52  1  0
  6 53  1  0
  5 54  1  0
  5 55  1  0
  4 56  1  0
 56 57  1  0
 57 58  1  0
 57 59  1  0
 57 60  1  0
 56 61  1  0
 61 62  1  0
 61 63  1  0
 61 64  1  0
 56 65  1  1
  4 66  1  6
  3 67  1  0
  3 68  1  0
  2 69  1  1
  1 70  1  0
  1 71  1  0
  1 72  1  0
 62  2  1  0
 45  7  1  0
 30  9  1  0
 44 38  1  0
 22 13  1  0
 22 17  1  0
M  CHG  1   4   1
M  END
>  <cnnaffinities>  (1) 
[6.46639, 6.30313]

>  <score>  (1) 
6.46639

>  <index>  (1) 
15

>  <Smiles>  (1) 
C([C@]1(C([N@+](C(C(N2C([C@@]3(C(=O)N(c4c(nc(c5c(c(c(c(c45)[H])[H])[H])[H])[H])[H])C([C@@]3(C([H])([H])[H])[H])([H])[H])c3c(c(Cl)c(c(c3C2=O)[H])[H])[H])([H])[H])([H])[H])([H])[H])([C@@](C([H])([H])[H])(C(O1)([H])[H])[H])[H])([H])[H])[H])([H])([H])[H]

>  <h>  (1) 
<NA>

>  <Training>  (1) 
True

>  <Success>  (1) 
True

>  <enamine_searched>  (1) 
False

>  <enamine_id>  (1) 
nan

$$$$
