
     RDKit          3D

 48 51  0  0  0  0  0  0  0  0999 V2000
   13.7938    0.3403   23.5184 N   0  0  0  0  0  0  0  0  0  0  0  0
   12.7264   -0.0853   23.3797 C   0  0  0  0  0  0  0  0  0  0  0  0
   11.3986   -0.6145   23.2050 C   0  0  0  0  0  0  0  0  0  0  0  0
   11.2144   -1.8547   22.5828 C   0  0  0  0  0  0  0  0  0  0  0  0
    9.9325   -2.3583   22.4157 C   0  0  0  0  0  0  0  0  0  0  0  0
    8.8258   -1.6242   22.8404 C   0  0  0  0  0  0  0  0  0  0  0  0
    7.5187   -2.1606   22.6374 N   0  0  0  0  0  0  0  0  0  0  0  0
    7.1254   -3.3453   23.4017 C   0  0  0  0  0  0  0  0  0  0  0  0
    6.7061   -3.0072   24.8239 C   0  0  0  0  0  0  0  0  0  0  0  0
    7.6938   -2.8682   25.7910 C   0  0  0  0  0  0  0  0  0  0  0  0
    7.3613   -2.5866   27.1010 C   0  0  0  0  0  0  0  0  0  0  0  0
    6.0467   -2.3251   27.4600 C   0  0  0  0  0  0  0  0  0  0  0  0
    5.0581   -2.4756   26.4935 C   0  0  0  0  0  0  0  0  0  0  0  0
    3.3837   -2.2464   26.9348 Cl  0  0  0  0  0  0  0  0  0  0  0  0
    5.3656   -2.8369   25.1837 C   0  0  0  0  0  0  0  0  0  0  0  0
    4.5717   -2.9719   24.4499 H   0  0  0  0  0  0  0  0  0  0  0  0
    5.7908   -2.0256   28.4712 H   0  0  0  0  0  0  0  0  0  0  0  0
    8.1547   -2.6785   27.8216 H   0  0  0  0  0  0  0  0  0  0  0  0
    8.7431   -2.9886   25.5320 H   0  0  0  0  0  0  0  0  0  0  0  0
    8.0029   -4.0045   23.4182 H   0  0  0  0  0  0  0  0  0  0  0  0
    6.3061   -3.8274   22.8581 H   0  0  0  0  0  0  0  0  0  0  0  0
    6.4954   -1.4860   22.0097 C   0  0  0  0  0  0  0  0  0  0  0  0
    5.3329   -1.8169   22.1758 O   0  0  0  0  0  0  0  0  0  0  0  0
    6.8936   -0.3633   21.0521 C   0  0  0  0  0  0  0  0  0  0  0  0
    5.8767   -0.1701   19.9648 C   0  0  0  0  0  0  0  0  0  0  0  0
    6.0426   -0.8040   18.7628 C   0  0  0  0  0  0  0  0  0  0  0  0
    5.2331   -0.6638   17.6831 N   0  0  0  0  0  0  0  0  0  0  0  0
    4.1749    0.0963   17.8310 C   0  0  0  0  0  0  0  0  0  0  0  0
    3.8255    0.7490   19.0438 C   0  0  0  0  0  0  0  0  0  0  0  0
    2.6450    1.5249   19.1677 C   0  0  0  0  0  0  0  0  0  0  0  0
    2.3268    2.1291   20.3516 C   0  0  0  0  0  0  0  0  0  0  0  0
    3.1957    2.0064   21.4582 C   0  0  0  0  0  0  0  0  0  0  0  0
    4.3518    1.2701   21.3607 C   0  0  0  0  0  0  0  0  0  0  0  0
    4.6974    0.6142   20.1482 C   0  0  0  0  0  0  0  0  0  0  0  0
    5.0097    1.1758   22.2187 H   0  0  0  0  0  0  0  0  0  0  0  0
    2.9527    2.5147   22.3869 H   0  0  0  0  0  0  0  0  0  0  0  0
    1.4105    2.7068   20.4402 H   0  0  0  0  0  0  0  0  0  0  0  0
    2.0122    1.6457   18.2972 H   0  0  0  0  0  0  0  0  0  0  0  0
    3.5152    0.1935   16.9687 H   0  0  0  0  0  0  0  0  0  0  0  0
    6.8914   -1.4700   18.6064 H   0  0  0  0  0  0  0  0  0  0  0  0
    7.8734   -0.6286   20.6385 H   0  0  0  0  0  0  0  0  0  0  0  0
    7.0510    0.5600   21.6260 H   0  0  0  0  0  0  0  0  0  0  0  0
    9.0106   -0.3981   23.4843 C   0  0  0  0  0  0  0  0  0  0  0  0
   10.2911    0.1070   23.6598 C   0  0  0  0  0  0  0  0  0  0  0  0
   10.4410    1.0662   24.1419 H   0  0  0  0  0  0  0  0  0  0  0  0
    8.1519    0.1475   23.8688 H   0  0  0  0  0  0  0  0  0  0  0  0
    9.7737   -3.3267   21.9466 H   0  0  0  0  0  0  0  0  0  0  0  0
   12.0738   -2.4230   22.2405 H   0  0  0  0  0  0  0  0  0  0  0  0
  1  2  3  0
  2  3  1  0
  3  4  2  0
  4  5  1  0
  5  6  2  0
  6  7  1  0
  7  8  1  0
  8  9  1  0
  9 10  2  0
 10 11  1  0
 11 12  2  0
 12 13  1  0
 13 14  1  0
 13 15  2  0
 15 16  1  0
 12 17  1  0
 11 18  1  0
 10 19  1  0
  8 20  1  0
  8 21  1  0
  7 22  1  0
 22 23  2  0
 22 24  1  0
 24 25  1  0
 25 26  2  0
 26 27  1  0
 27 28  2  0
 28 29  1  0
 29 30  2  0
 30 31  1  0
 31 32  2  0
 32 33  1  0
 33 34  2  0
 33 35  1  0
 32 36  1  0
 31 37  1  0
 30 38  1  0
 28 39  1  0
 26 40  1  0
 24 41  1  0
 24 42  1  0
  6 43  1  0
 43 44  2  0
 44 45  1  0
 43 46  1  0
  5 47  1  0
  4 48  1  0
 44  3  1  0
 15  9  1  0
 34 25  1  0
 34 29  1  0
M  END
>  <cnnaffinities>  (1) 
[6.17735, 6.17829, 6.03583, 6.21936, 6.21921, 6.03566, 5.84415, 5.84335, 5.73413, 5.73436, 5.96366, 5.95276, 5.97296, 5.97249, 6.45635, 6.44642, 6.23516]

>  <score>  (1) 
6.17735

>  <index>  (1) 
37

>  <Smiles>  (1) 
N#Cc1c(c(c(N(C(c2c(c(c(c(Cl)c2[H])[H])[H])[H])([H])[H])C(=O)C(c2c(nc(c3c(c(c(c(c23)[H])[H])[H])[H])[H])[H])([H])[H])c(c1[H])[H])[H])[H]

>  <h>  (1) 
<NA>

>  <Training>  (1) 
True

>  <Success>  (1) 
True

>  <enamine_searched>  (1) 
False

>  <enamine_id>  (1) 
nan

$$$$
