
     RDKit          3D

 66 71  0  0  0  0  0  0  0  0999 V2000
    9.8371   -1.5725   21.9330 C   0  0  0  0  0  0  0  0  0  0  0  0
    8.7866   -0.5001   22.2469 C   0  0  1  0  0  0  0  0  0  0  0  0
    8.1316   -0.0313   20.9335 C   0  0  0  0  0  0  0  0  0  0  0  0
    6.7523   -0.4474   21.0374 N   0  0  0  0  0  0  0  0  0  0  0  0
    5.8468   -0.2159   19.9892 C   0  0  0  0  0  0  0  0  0  0  0  0
    6.0889   -0.7675   18.7588 C   0  0  0  0  0  0  0  0  0  0  0  0
    5.2890   -0.6129   17.6812 N   0  0  0  0  0  0  0  0  0  0  0  0
    4.2125    0.1217   17.8428 C   0  0  0  0  0  0  0  0  0  0  0  0
    3.8589    0.7619   19.0669 C   0  0  0  0  0  0  0  0  0  0  0  0
    2.6920    1.5596   19.1785 C   0  0  0  0  0  0  0  0  0  0  0  0
    2.3812    2.1745   20.3592 C   0  0  0  0  0  0  0  0  0  0  0  0
    3.2503    2.0671   21.4672 C   0  0  0  0  0  0  0  0  0  0  0  0
    4.3996    1.3217   21.3880 C   0  0  0  0  0  0  0  0  0  0  0  0
    4.7060    0.6167   20.1829 C   0  0  0  0  0  0  0  0  0  0  0  0
    5.0737    1.2720   22.2432 H   0  0  0  0  0  0  0  0  0  0  0  0
    3.0106    2.5965   22.3854 H   0  0  0  0  0  0  0  0  0  0  0  0
    1.4749    2.7660   20.4432 H   0  0  0  0  0  0  0  0  0  0  0  0
    2.0718    1.6829   18.2990 H   0  0  0  0  0  0  0  0  0  0  0  0
    3.5543    0.2337   16.9818 H   0  0  0  0  0  0  0  0  0  0  0  0
    6.9704   -1.3943   18.6273 H   0  0  0  0  0  0  0  0  0  0  0  0
    6.4068   -1.0486   22.2188 C   0  0  0  0  0  0  0  0  0  0  0  0
    5.3334   -1.5828   22.4489 O   0  0  0  0  0  0  0  0  0  0  0  0
    7.6011   -0.9306   23.1821 C   0  0  1  0  0  0  0  0  0  0  0  0
    7.8151   -2.2972   23.8549 C   0  0  0  0  0  0  0  0  0  0  0  0
    6.8082   -2.5447   24.8682 N   0  0  0  0  0  0  0  0  0  0  0  0
    6.2702   -3.8806   25.0160 C   0  0  0  0  0  0  0  0  0  0  0  0
    4.8498   -3.9190   25.5654 C   0  0  0  0  0  0  0  0  0  0  0  0
    4.6095   -4.5989   26.5493 O   0  0  0  0  0  0  0  0  0  0  0  0
    3.8650   -3.2361   24.8941 N   0  0  0  0  0  0  0  0  0  0  0  0
    2.6646   -2.9967   25.6968 C   0  0  0  0  0  0  0  0  0  0  0  0
    2.8727   -1.8463   26.6379 C   0  0  0  0  0  0  0  0  0  0  0  0
    2.9439   -1.8274   28.0155 C   0  0  0  0  0  0  0  0  0  0  0  0
    3.1941   -0.4826   28.3426 C   0  0  0  0  0  0  0  0  0  0  0  0
    3.3058    0.2686   27.2544 N   0  0  0  0  0  0  0  0  0  0  0  0
    3.1074   -0.5709   26.2239 N   0  0  0  0  0  0  0  0  0  0  0  0
    3.2200   -0.0306   24.8802 C   0  0  0  0  0  0  0  0  0  0  0  0
    4.2094   -0.2331   24.4512 H   0  0  0  0  0  0  0  0  0  0  0  0
    3.0849    1.0496   24.9727 H   0  0  0  0  0  0  0  0  0  0  0  0
    2.4418   -0.4584   24.2404 H   0  0  0  0  0  0  0  0  0  0  0  0
    3.2872   -0.0306   29.3220 H   0  0  0  0  0  0  0  0  0  0  0  0
    2.8861   -2.6830   28.6765 H   0  0  0  0  0  0  0  0  0  0  0  0
    2.5113   -3.9071   26.2827 H   0  0  0  0  0  0  0  0  0  0  0  0
    1.7595   -2.8700   25.0884 H   0  0  0  0  0  0  0  0  0  0  0  0
    4.1143   -2.5847   24.1449 H   0  0  0  0  0  0  0  0  0  0  0  0
    6.8701   -4.5025   25.6941 H   0  0  0  0  0  0  0  0  0  0  0  0
    6.2772   -4.3477   24.0203 H   0  0  0  0  0  0  0  0  0  0  0  0
    6.7291   -1.6631   25.9218 C   0  0  0  0  0  0  0  0  0  0  0  0
    6.4777   -2.0046   27.0647 O   0  0  0  0  0  0  0  0  0  0  0  0
    6.9255   -0.2319   25.5445 C   0  0  0  0  0  0  0  0  0  0  0  0
    6.6575    0.7370   26.5104 C   0  0  0  0  0  0  0  0  0  0  0  0
    6.7302    2.0802   26.1919 C   0  0  0  0  0  0  0  0  0  0  0  0
    7.0684    2.4489   24.8920 C   0  0  0  0  0  0  0  0  0  0  0  0
    7.3304    1.4851   23.9317 C   0  0  0  0  0  0  0  0  0  0  0  0
    7.2893    0.1208   24.2452 C   0  0  0  0  0  0  0  0  0  0  0  0
    7.5894    1.8094   22.9273 H   0  0  0  0  0  0  0  0  0  0  0  0
    7.1427    3.4975   24.6312 H   0  0  0  0  0  0  0  0  0  0  0  0
    6.5138    2.8349   26.9415 H   0  0  0  0  0  0  0  0  0  0  0  0
    6.3915    0.3930   27.5019 H   0  0  0  0  0  0  0  0  0  0  0  0
    7.7423   -3.0775   23.0972 H   0  0  0  0  0  0  0  0  0  0  0  0
    8.8236   -2.3321   24.2928 H   0  0  0  0  0  0  0  0  0  0  0  0
    8.5873   -0.5133   20.0644 H   0  0  0  0  0  0  0  0  0  0  0  0
    8.2123    1.0547   20.7755 H   0  0  0  0  0  0  0  0  0  0  0  0
    9.3188    0.3331   22.7202 H   0  0  0  0  0  0  0  0  0  0  0  0
   10.5787   -1.1585   21.2395 H   0  0  0  0  0  0  0  0  0  0  0  0
    9.3818   -2.4474   21.4543 H   0  0  0  0  0  0  0  0  0  0  0  0
   10.3707   -1.9008   22.8289 H   0  0  0  0  0  0  0  0  0  0  0  0
  1  2  1  0
  2  3  1  0
  3  4  1  0
  4  5  1  0
  5  6  2  0
  6  7  1  0
  7  8  2  0
  8  9  1  0
  9 10  2  0
 10 11  1  0
 11 12  2  0
 12 13  1  0
 13 14  2  0
 13 15  1  0
 12 16  1  0
 11 17  1  0
 10 18  1  0
  8 19  1  0
  6 20  1  0
  4 21  1  0
 21 22  2  0
 21 23  1  0
 23 24  1  1
 24 25  1  0
 25 26  1  0
 26 27  1  0
 27 28  2  0
 27 29  1  0
 29 30  1  0
 30 31  1  0
 31 32  2  0
 32 33  1  0
 33 34  2  0
 34 35  1  0
 35 36  1  0
 36 37  1  0
 36 38  1  0
 36 39  1  0
 33 40  1  0
 32 41  1  0
 30 42  1  0
 30 43  1  0
 29 44  1  0
 26 45  1  0
 26 46  1  0
 25 47  1  0
 47 48  2  0
 47 49  1  0
 49 50  2  0
 50 51  1  0
 51 52  2  0
 52 53  1  0
 53 54  2  0
 53 55  1  0
 52 56  1  0
 51 57  1  0
 50 58  1  0
 24 59  1  0
 24 60  1  0
  3 61  1  0
  3 62  1  0
  2 63  1  1
  1 64  1  0
  1 65  1  0
  1 66  1  0
 23  2  1  0
 35 31  1  0
 54 49  1  0
 14  5  1  0
 54 23  1  0
 14  9  1  0
M  END
>  <cnnaffinities>  (1) 
[6.11294, 6.1907, 6.05909, 6.13699]

>  <score>  (1) 
6.11294

>  <index>  (1) 
8

>  <Smiles>  (1) 
C([C@]1(C(N(c2c(nc(c3c(c(c(c(c23)[H])[H])[H])[H])[H])[H])C(=O)[C@]21C(N(C(C(=O)N(C(c1c(c(nn1C([H])([H])[H])[H])[H])([H])[H])[H])([H])[H])C(=O)c1c(c(c(c(c21)[H])[H])[H])[H])([H])[H])([H])[H])[H])([H])([H])[H]

>  <h>  (1) 
<NA>

>  <Training>  (1) 
True

>  <Success>  (1) 
True

>  <enamine_searched>  (1) 
False

>  <enamine_id>  (1) 
nan

$$$$
