
     RDKit          3D

 56 60  0  0  0  0  0  0  0  0999 V2000
   13.5870    0.7468   23.4785 C   0  0  0  0  0  0  0  0  0  0  0  0
   12.5995   -0.2244   23.0339 N   0  0  0  0  0  0  0  0  0  0  0  0
   12.9884   -1.5372   22.9806 C   0  0  0  0  0  0  0  0  0  0  0  0
   14.1493   -1.8779   23.1088 O   0  0  0  0  0  0  0  0  0  0  0  0
   11.8990   -2.5686   22.7020 C   0  0  0  0  0  0  0  0  0  0  0  0
   10.5368   -2.2699   23.1203 N   0  0  0  0  0  0  0  0  0  0  0  0
    9.3899   -2.5791   22.2619 C   0  0  0  0  0  0  0  0  0  0  0  0
    8.3314   -1.4830   22.4484 C   0  0  2  0  0  0  0  0  0  0  0  0
    7.1031   -1.6960   21.5402 C   0  0  0  0  0  0  0  0  0  0  0  0
    6.5806   -2.7514   21.2519 O   0  0  0  0  0  0  0  0  0  0  0  0
    6.6811   -0.4535   21.0946 N   0  0  0  0  0  0  0  0  0  0  0  0
    5.7828   -0.2864   20.0097 C   0  0  0  0  0  0  0  0  0  0  0  0
    6.0572   -0.8107   18.7700 C   0  0  0  0  0  0  0  0  0  0  0  0
    5.3195   -0.5577   17.6608 N   0  0  0  0  0  0  0  0  0  0  0  0
    4.2659    0.2151   17.7889 C   0  0  0  0  0  0  0  0  0  0  0  0
    3.8667    0.8235   19.0147 C   0  0  0  0  0  0  0  0  0  0  0  0
    2.7222    1.6630   19.1163 C   0  0  0  0  0  0  0  0  0  0  0  0
    2.3797    2.2308   20.3141 C   0  0  0  0  0  0  0  0  0  0  0  0
    3.1754    2.0094   21.4599 C   0  0  0  0  0  0  0  0  0  0  0  0
    4.2956    1.2166   21.3820 C   0  0  0  0  0  0  0  0  0  0  0  0
    4.6570    0.5859   20.1600 C   0  0  0  0  0  0  0  0  0  0  0  0
    4.9136    1.0685   22.2634 H   0  0  0  0  0  0  0  0  0  0  0  0
    2.8988    2.4670   22.4058 H   0  0  0  0  0  0  0  0  0  0  0  0
    1.4936    2.8579   20.3918 H   0  0  0  0  0  0  0  0  0  0  0  0
    2.1261    1.8515   18.2279 H   0  0  0  0  0  0  0  0  0  0  0  0
    3.6671    0.3876   16.8932 H   0  0  0  0  0  0  0  0  0  0  0  0
    6.9197   -1.4570   18.6121 H   0  0  0  0  0  0  0  0  0  0  0  0
    7.6254    0.6172   21.4060 C   0  0  0  0  0  0  0  0  0  0  0  0
    8.8557   -0.0817   22.0053 C   0  0  2  0  0  0  0  0  0  0  0  0
   10.0156   -0.1665   21.0558 N   0  0  0  0  0  0  0  0  0  0  0  0
    9.8278   -0.8183   20.2634 H   0  0  0  0  0  0  0  0  0  0  0  0
   10.8706   -0.4828   21.5500 H   0  0  0  0  0  0  0  0  0  0  0  0
   10.2100    0.7805   20.7029 H   0  0  0  0  0  0  0  0  0  0  0  0
    9.2057    0.4722   22.8776 H   0  0  0  0  0  0  0  0  0  0  0  0
    7.1966    1.3044   22.1447 H   0  0  0  0  0  0  0  0  0  0  0  0
    7.8609    1.1793   20.4985 H   0  0  0  0  0  0  0  0  0  0  0  0
    7.9767   -1.4373   23.9363 C   0  0  0  0  0  0  0  0  0  0  0  0
    6.7821   -0.8673   24.3912 C   0  0  0  0  0  0  0  0  0  0  0  0
    6.5567   -0.7334   25.7525 C   0  0  0  0  0  0  0  0  0  0  0  0
    5.1118    0.0465   26.3202 Cl  0  0  0  0  0  0  0  0  0  0  0  0
    7.4698   -1.1994   26.6946 C   0  0  0  0  0  0  0  0  0  0  0  0
    8.6586   -1.7467   26.2511 C   0  0  0  0  0  0  0  0  0  0  0  0
    8.9348   -1.8215   24.8861 C   0  0  0  0  0  0  0  0  0  0  0  0
   10.3066   -2.2646   24.4786 C   0  0  0  0  0  0  0  0  0  0  0  0
   11.1839   -2.5240   25.2899 O   0  0  0  0  0  0  0  0  0  0  0  0
    9.4126   -2.1134   26.9417 H   0  0  0  0  0  0  0  0  0  0  0  0
    7.2502   -1.1108   27.7530 H   0  0  0  0  0  0  0  0  0  0  0  0
    6.0210   -0.5273   23.6975 H   0  0  0  0  0  0  0  0  0  0  0  0
    9.7082   -2.6606   21.2202 H   0  0  0  0  0  0  0  0  0  0  0  0
    8.9314   -3.5372   22.5427 H   0  0  0  0  0  0  0  0  0  0  0  0
   11.8996   -2.7318   21.6210 H   0  0  0  0  0  0  0  0  0  0  0  0
   12.2611   -3.4683   23.1903 H   0  0  0  0  0  0  0  0  0  0  0  0
   11.6568   -0.0438   23.3321 H   0  0  0  0  0  0  0  0  0  0  0  0
   13.0879    1.6967   23.6783 H   0  0  0  0  0  0  0  0  0  0  0  0
   14.0884    0.3990   24.3819 H   0  0  0  0  0  0  0  0  0  0  0  0
   14.3512    0.9194   22.7190 H   0  0  0  0  0  0  0  0  0  0  0  0
  1  2  1  0
  2  3  1  0
  3  4  2  0
  3  5  1  0
  5  6  1  0
  6  7  1  0
  8  7  1  1
  8  9  1  0
  9 10  2  0
  9 11  1  0
 11 12  1  0
 12 13  2  0
 13 14  1  0
 14 15  2  0
 15 16  1  0
 16 17  2  0
 17 18  1  0
 18 19  2  0
 19 20  1  0
 20 21  2  0
 20 22  1  0
 19 23  1  0
 18 24  1  0
 17 25  1  0
 15 26  1  0
 13 27  1  0
 11 28  1  0
 28 29  1  0
 29 30  1  0
 30 31  1  0
 30 32  1  0
 30 33  1  0
 29 34  1  1
 28 35  1  0
 28 36  1  0
  8 37  1  0
 37 38  2  0
 38 39  1  0
 39 40  1  0
 39 41  2  0
 41 42  1  0
 42 43  2  0
 43 44  1  0
 44 45  2  0
 42 46  1  0
 41 47  1  0
 38 48  1  0
  7 49  1  0
  7 50  1  0
  5 51  1  0
  5 52  1  0
  2 53  1  0
  1 54  1  0
  1 55  1  0
  1 56  1  0
 44  6  1  0
 29  8  1  0
 43 37  1  0
 21 12  1  0
 21 16  1  0
M  CHG  1  30   1
M  END
>  <cnnaffinities>  (1) 
[6.34866, 6.09243, 6.35237]

>  <score>  (1) 
6.34866

>  <index>  (1) 
2

>  <Smiles>  (1) 
C(N(C(=O)C(N1C([C@@]2(C(=O)N(c3c(nc(c4c(c(c(c(c34)[H])[H])[H])[H])[H])[H])C([C@@]2([N+]([H])([H])[H])[H])([H])[H])c2c(c(Cl)c(c(c2C1=O)[H])[H])[H])([H])[H])([H])[H])[H])([H])([H])[H]

>  <h>  (1) 
<NA>

>  <Training>  (1) 
True

>  <Success>  (1) 
True

>  <enamine_searched>  (1) 
False

>  <enamine_id>  (1) 
nan

$$$$
