
     RDKit          3D

 43 47  0  0  0  0  0  0  0  0999 V2000
    8.5617    0.8306   20.3113 O   0  0  0  0  0  0  0  0  0  0  0  0
    8.1104   -0.0661   20.9863 C   0  0  0  0  0  0  0  0  0  0  0  0
    8.7515   -0.8587   21.8955 N   0  0  0  0  0  0  0  0  0  0  0  0
    7.8549   -1.4423   22.8587 C   0  0  1  0  0  0  0  0  0  0  0  0
    8.1345   -2.8994   23.2689 C   0  0  0  0  0  0  0  0  0  0  0  0
    8.4200   -2.4419   24.7340 C   0  0  2  0  0  0  0  0  0  0  0  0
    7.5527   -3.0612   25.7876 C   0  0  0  0  0  0  0  0  0  0  0  0
    6.1577   -3.0377   25.6551 C   0  0  0  0  0  0  0  0  0  0  0  0
    5.3261   -3.6142   26.6089 C   0  0  0  0  0  0  0  0  0  0  0  0
    5.8831   -4.1796   27.7535 C   0  0  0  0  0  0  0  0  0  0  0  0
    7.2535   -4.1205   27.9509 C   0  0  0  0  0  0  0  0  0  0  0  0
    8.0785   -3.6344   26.9434 C   0  0  0  0  0  0  0  0  0  0  0  0
    9.8069   -3.8092   27.1405 Cl  0  0  0  0  0  0  0  0  0  0  0  0
    7.6977   -4.4748   28.8763 H   0  0  0  0  0  0  0  0  0  0  0  0
    5.2675   -4.6839   28.4921 H   0  0  0  0  0  0  0  0  0  0  0  0
    4.2472   -3.5853   26.4773 H   0  0  0  0  0  0  0  0  0  0  0  0
    5.7206   -2.5397   24.7884 H   0  0  0  0  0  0  0  0  0  0  0  0
    8.0360   -0.9807   24.3301 C   0  0  0  0  0  0  0  0  0  0  0  0
    8.8183   -0.2279   24.4726 H   0  0  0  0  0  0  0  0  0  0  0  0
    7.1223   -0.5991   24.7985 H   0  0  0  0  0  0  0  0  0  0  0  0
    9.4788   -2.5297   24.9929 H   0  0  0  0  0  0  0  0  0  0  0  0
    8.9741   -3.3490   22.7329 H   0  0  0  0  0  0  0  0  0  0  0  0
    7.2583   -3.5452   23.1591 H   0  0  0  0  0  0  0  0  0  0  0  0
    6.5053   -1.1857   22.2197 C   0  0  0  0  0  0  0  0  0  0  0  0
    5.4284   -1.5199   22.6558 O   0  0  0  0  0  0  0  0  0  0  0  0
    6.7538   -0.4579   21.0540 N   0  0  0  0  0  0  0  0  0  0  0  0
    5.8358   -0.2296   19.9968 C   0  0  0  0  0  0  0  0  0  0  0  0
    6.0553   -0.8242   18.7792 C   0  0  0  0  0  0  0  0  0  0  0  0
    5.2529   -0.6580   17.7038 N   0  0  0  0  0  0  0  0  0  0  0  0
    4.1918    0.0944   17.8560 C   0  0  0  0  0  0  0  0  0  0  0  0
    3.8380    0.7504   19.0658 C   0  0  0  0  0  0  0  0  0  0  0  0
    2.6566    1.5278   19.1800 C   0  0  0  0  0  0  0  0  0  0  0  0
    2.3548    2.1634   20.3490 C   0  0  0  0  0  0  0  0  0  0  0  0
    3.2414    2.0781   21.4455 C   0  0  0  0  0  0  0  0  0  0  0  0
    4.3939    1.3377   21.3613 C   0  0  0  0  0  0  0  0  0  0  0  0
    4.7004    0.6194   20.1715 C   0  0  0  0  0  0  0  0  0  0  0  0
    5.0758    1.2847   22.2043 H   0  0  0  0  0  0  0  0  0  0  0  0
    3.0074    2.6087   22.3618 H   0  0  0  0  0  0  0  0  0  0  0  0
    1.4421    2.7482   20.4350 H   0  0  0  0  0  0  0  0  0  0  0  0
    2.0108    1.6189   18.3177 H   0  0  0  0  0  0  0  0  0  0  0  0
    3.5356    0.1893   16.9939 H   0  0  0  0  0  0  0  0  0  0  0  0
    6.9097   -1.4811   18.6305 H   0  0  0  0  0  0  0  0  0  0  0  0
    9.7480   -0.8240   22.0286 H   0  0  0  0  0  0  0  0  0  0  0  0
  1  2  2  0
  2  3  1  0
  4  3  1  6
  4  5  1  0
  5  6  1  0
  6  7  1  0
  7  8  2  0
  8  9  1  0
  9 10  2  0
 10 11  1  0
 11 12  2  0
 12 13  1  0
 11 14  1  0
 10 15  1  0
  9 16  1  0
  8 17  1  0
  6 18  1  0
 18 19  1  0
 18 20  1  0
  6 21  1  1
  5 22  1  0
  5 23  1  0
  4 24  1  0
 24 25  2  0
 24 26  1  0
 26 27  1  0
 27 28  2  0
 28 29  1  0
 29 30  2  0
 30 31  1  0
 31 32  2  0
 32 33  1  0
 33 34  2  0
 34 35  1  0
 35 36  2  0
 35 37  1  0
 34 38  1  0
 33 39  1  0
 32 40  1  0
 30 41  1  0
 28 42  1  0
  3 43  1  0
 26  2  1  0
 36 27  1  0
 18  4  1  0
 36 31  1  0
 12  7  1  0
M  END
>  <cnnaffinities>  (1) 
[5.70965, 5.57673, 5.69732, 5.54045]

>  <score>  (1) 
5.70965

>  <index>  (1) 
26

>  <Smiles>  (1) 
O=C1N([C@]2(C([C@](c3c(c(c(c(c3Cl)[H])[H])[H])[H])(C2([H])[H])[H])([H])[H])C(=O)N1c1c(nc(c2c(c(c(c(c12)[H])[H])[H])[H])[H])[H])[H]

>  <h>  (1) 
<NA>

>  <Training>  (1) 
True

>  <Success>  (1) 
True

>  <enamine_searched>  (1) 
False

>  <enamine_id>  (1) 
nan

$$$$
