
     RDKit          3D

 56 61  0  0  0  0  0  0  0  0999 V2000
    7.8885   -1.6407   24.2540 C   0  0  0  0  0  0  0  0  0  0  0  0
    8.0289   -1.2408   22.7868 C   0  0  1  0  0  0  0  0  0  0  0  0
    6.7103   -1.3663   22.0036 C   0  0  0  0  0  0  0  0  0  0  0  0
    6.8240   -0.3397   20.9947 N   0  0  0  0  0  0  0  0  0  0  0  0
    5.8908   -0.1576   19.9482 C   0  0  0  0  0  0  0  0  0  0  0  0
    6.1290   -0.7267   18.7269 C   0  0  0  0  0  0  0  0  0  0  0  0
    5.3156   -0.5924   17.6513 N   0  0  0  0  0  0  0  0  0  0  0  0
    4.2365    0.1370   17.8016 C   0  0  0  0  0  0  0  0  0  0  0  0
    3.8653    0.7765   19.0200 C   0  0  0  0  0  0  0  0  0  0  0  0
    2.6965    1.5742   19.1332 C   0  0  0  0  0  0  0  0  0  0  0  0
    2.3443    2.1254   20.3327 C   0  0  0  0  0  0  0  0  0  0  0  0
    3.1590    1.9308   21.4728 C   0  0  0  0  0  0  0  0  0  0  0  0
    4.3118    1.1884   21.3852 C   0  0  0  0  0  0  0  0  0  0  0  0
    4.7015    0.6068   20.1464 C   0  0  0  0  0  0  0  0  0  0  0  0
    4.9406    1.0470   22.2622 H   0  0  0  0  0  0  0  0  0  0  0  0
    2.8739    2.3888   22.4175 H   0  0  0  0  0  0  0  0  0  0  0  0
    1.4420    2.7263   20.4216 H   0  0  0  0  0  0  0  0  0  0  0  0
    2.1003    1.7432   18.2410 H   0  0  0  0  0  0  0  0  0  0  0  0
    3.5780    0.2402   16.9372 H   0  0  0  0  0  0  0  0  0  0  0  0
    7.0262   -1.3245   18.5804 H   0  0  0  0  0  0  0  0  0  0  0  0
    7.8154    0.5874   21.2226 C   0  0  0  0  0  0  0  0  0  0  0  0
    8.0408    1.5332   20.4994 O   0  0  0  0  0  0  0  0  0  0  0  0
    8.5608    0.2031   22.5207 C   0  0  1  0  0  0  0  0  0  0  0  0
    8.1582    1.1448   23.6948 C   0  0  0  0  0  0  0  0  0  0  0  0
    8.7267    2.4735   23.5988 N   0  0  0  0  0  0  0  0  0  0  0  0
    7.9361    3.6202   24.0521 C   0  0  0  0  0  0  0  0  0  0  0  0
    7.1836    4.2981   22.9383 C   0  0  0  0  0  0  0  0  0  0  0  0
    5.8732    4.1190   22.4457 C   0  0  0  0  0  0  0  0  0  0  0  0
    5.6539    4.8044   21.3260 N   0  0  0  0  0  0  0  0  0  0  0  0
    6.8171    5.4323   21.1082 N   0  0  0  0  0  0  0  0  0  0  0  0
    7.7505    5.1687   22.0467 C   0  0  0  0  0  0  0  0  0  0  0  0
    8.7439    5.5950   22.0046 H   0  0  0  0  0  0  0  0  0  0  0  0
    6.8808    6.0946   20.3489 H   0  0  0  0  0  0  0  0  0  0  0  0
    5.0656    3.5444   22.8871 H   0  0  0  0  0  0  0  0  0  0  0  0
    8.6374    4.3251   24.5047 H   0  0  0  0  0  0  0  0  0  0  0  0
    7.2437    3.2942   24.8327 H   0  0  0  0  0  0  0  0  0  0  0  0
    9.9942    2.7038   23.1394 C   0  0  0  0  0  0  0  0  0  0  0  0
   10.5037    3.8191   23.1690 O   0  0  0  0  0  0  0  0  0  0  0  0
   10.7309    1.5078   22.6004 C   0  0  0  0  0  0  0  0  0  0  0  0
   12.1124    1.6026   22.4226 C   0  0  0  0  0  0  0  0  0  0  0  0
   12.8439    0.5227   21.9691 C   0  0  0  0  0  0  0  0  0  0  0  0
   12.1613   -0.6402   21.6340 C   0  0  0  0  0  0  0  0  0  0  0  0
   12.8550   -1.6947   21.1742 F   0  0  0  0  0  0  0  0  0  0  0  0
   10.7954   -0.7516   21.7640 C   0  0  0  0  0  0  0  0  0  0  0  0
   10.0605    0.3090   22.3100 C   0  0  0  0  0  0  0  0  0  0  0  0
   10.3337   -1.6704   21.4180 H   0  0  0  0  0  0  0  0  0  0  0  0
   13.9183    0.5629   21.8517 H   0  0  0  0  0  0  0  0  0  0  0  0
   12.6072    2.5322   22.6832 H   0  0  0  0  0  0  0  0  0  0  0  0
    8.4732    0.6835   24.6413 H   0  0  0  0  0  0  0  0  0  0  0  0
    7.0665    1.2298   23.7037 H   0  0  0  0  0  0  0  0  0  0  0  0
    5.8351   -1.2007   22.6509 H   0  0  0  0  0  0  0  0  0  0  0  0
    6.5917   -2.3526   21.5384 H   0  0  0  0  0  0  0  0  0  0  0  0
    8.7250   -1.9426   22.3253 H   0  0  0  0  0  0  0  0  0  0  0  0
    7.5779   -2.6865   24.3508 H   0  0  0  0  0  0  0  0  0  0  0  0
    7.1336   -1.0276   24.7623 H   0  0  0  0  0  0  0  0  0  0  0  0
    8.8395   -1.5161   24.7851 H   0  0  0  0  0  0  0  0  0  0  0  0
  1  2  1  0
  2  3  1  0
  3  4  1  0
  4  5  1  0
  5  6  2  0
  6  7  1  0
  7  8  2  0
  8  9  1  0
  9 10  2  0
 10 11  1  0
 11 12  2  0
 12 13  1  0
 13 14  2  0
 13 15  1  0
 12 16  1  0
 11 17  1  0
 10 18  1  0
  8 19  1  0
  6 20  1  0
  4 21  1  0
 21 22  2  0
 21 23  1  0
 23 24  1  1
 24 25  1  0
 25 26  1  0
 26 27  1  0
 27 28  1  0
 28 29  2  0
 29 30  1  0
 30 31  1  0
 31 32  1  0
 30 33  1  0
 28 34  1  0
 26 35  1  0
 26 36  1  0
 25 37  1  0
 37 38  2  0
 37 39  1  0
 39 40  2  0
 40 41  1  0
 41 42  2  0
 42 43  1  0
 42 44  1  0
 44 45  2  0
 44 46  1  0
 41 47  1  0
 40 48  1  0
 24 49  1  0
 24 50  1  0
  3 51  1  0
  3 52  1  0
  2 53  1  6
  1 54  1  0
  1 55  1  0
  1 56  1  0
 23  2  1  0
 31 27  2  0
 45 39  1  0
 14  5  1  0
 45 23  1  0
 14  9  1  0
M  END
>  <cnnaffinities>  (1) 
[6.23666]

>  <score>  (1) 
6.23666

>  <index>  (1) 
91

>  <Smiles>  (1) 
C([C@]1(C(N(c2c(nc(c3c(c(c(c(c23)[H])[H])[H])[H])[H])[H])C(=O)[C@]21C(N(C(c1c(nn(c1[H])[H])[H])([H])[H])C(=O)c1c(c(c(F)c(c21)[H])[H])[H])([H])[H])([H])[H])[H])([H])([H])[H]

>  <h>  (1) 
<NA>

>  <Training>  (1) 
True

>  <Success>  (1) 
True

>  <enamine_searched>  (1) 
False

>  <enamine_id>  (1) 
nan

$$$$
