
     RDKit          3D

 72 77  0  0  0  0  0  0  0  0999 V2000
    4.4909    4.5840   23.8324 C   0  0  0  0  0  0  0  0  0  0  0  0
    5.5824    5.6198   24.0613 C   0  0  2  0  0  0  0  0  0  0  0  0
    4.9552    7.0104   24.1500 C   0  0  0  0  0  0  0  0  0  0  0  0
    5.9073    8.0490   24.1842 O   0  0  0  0  0  0  0  0  0  0  0  0
    6.6527    8.0558   22.9863 C   0  0  0  0  0  0  0  0  0  0  0  0
    7.5113    6.8043   22.8555 C   0  0  1  0  0  0  0  0  0  0  0  0
    8.6046    6.7866   23.9174 C   0  0  0  0  0  0  0  0  0  0  0  0
    9.3530    6.0099   23.7305 H   0  0  0  0  0  0  0  0  0  0  0  0
    8.1646    6.6452   24.9101 H   0  0  0  0  0  0  0  0  0  0  0  0
    9.1310    7.7465   23.9258 H   0  0  0  0  0  0  0  0  0  0  0  0
    6.5883    5.5938   22.9186 N   0  0  0  0  0  0  0  0  0  0  0  0
    7.3112    4.2977   22.6850 C   0  0  0  0  0  0  0  0  0  0  0  0
    7.8127    3.5880   23.9479 C   0  0  0  0  0  0  0  0  0  0  0  0
    8.6459    2.4483   23.6231 N   0  0  0  0  0  0  0  0  0  0  0  0
    8.1141    1.1059   23.7398 C   0  0  0  0  0  0  0  0  0  0  0  0
    8.5197    0.2026   22.5560 C   0  0  2  0  0  0  0  0  0  0  0  0
    7.7681    0.6230   21.2787 C   0  0  0  0  0  0  0  0  0  0  0  0
    7.9378    1.6253   20.6203 O   0  0  0  0  0  0  0  0  0  0  0  0
    6.8387   -0.3446   20.9875 N   0  0  0  0  0  0  0  0  0  0  0  0
    5.8866   -0.1646   19.9595 C   0  0  0  0  0  0  0  0  0  0  0  0
    6.0779   -0.7919   18.7581 C   0  0  0  0  0  0  0  0  0  0  0  0
    5.2621   -0.6498   17.6864 N   0  0  0  0  0  0  0  0  0  0  0  0
    4.1994    0.1046   17.8384 C   0  0  0  0  0  0  0  0  0  0  0  0
    3.8567    0.7678   19.0526 C   0  0  0  0  0  0  0  0  0  0  0  0
    2.6704    1.5378   19.1783 C   0  0  0  0  0  0  0  0  0  0  0  0
    2.3397    2.1218   20.3698 C   0  0  0  0  0  0  0  0  0  0  0  0
    3.2016    2.0051   21.4839 C   0  0  0  0  0  0  0  0  0  0  0  0
    4.3699    1.2889   21.3851 C   0  0  0  0  0  0  0  0  0  0  0  0
    4.7217    0.6381   20.1630 C   0  0  0  0  0  0  0  0  0  0  0  0
    5.0279    1.2151   22.2487 H   0  0  0  0  0  0  0  0  0  0  0  0
    2.9475    2.5057   22.4165 H   0  0  0  0  0  0  0  0  0  0  0  0
    1.4145    2.6854   20.4635 H   0  0  0  0  0  0  0  0  0  0  0  0
    2.0448    1.6707   18.3019 H   0  0  0  0  0  0  0  0  0  0  0  0
    3.5273    0.2037   16.9832 H   0  0  0  0  0  0  0  0  0  0  0  0
    6.9371   -1.4480   18.6168 H   0  0  0  0  0  0  0  0  0  0  0  0
    6.7773   -1.4342   21.9280 C   0  0  0  0  0  0  0  0  0  0  0  0
    8.0599   -1.2751   22.7556 C   0  0  2  0  0  0  0  0  0  0  0  0
    7.8851   -1.7691   24.1900 C   0  0  0  0  0  0  0  0  0  0  0  0
    7.0863   -1.2147   24.6954 H   0  0  0  0  0  0  0  0  0  0  0  0
    7.6043   -2.8285   24.2015 H   0  0  0  0  0  0  0  0  0  0  0  0
    8.7987   -1.6661   24.7867 H   0  0  0  0  0  0  0  0  0  0  0  0
    8.8272   -1.8940   22.2941 H   0  0  0  0  0  0  0  0  0  0  0  0
    6.7301   -2.3876   21.3909 H   0  0  0  0  0  0  0  0  0  0  0  0
    5.8856   -1.3636   22.5687 H   0  0  0  0  0  0  0  0  0  0  0  0
   10.0124    0.3505   22.3542 C   0  0  0  0  0  0  0  0  0  0  0  0
   10.7206   -0.6222   21.6425 C   0  0  0  0  0  0  0  0  0  0  0  0
   12.0888   -0.5064   21.5012 C   0  0  0  0  0  0  0  0  0  0  0  0
   12.9336   -1.7829   20.6597 Cl  0  0  0  0  0  0  0  0  0  0  0  0
   12.7778    0.6379   21.9097 C   0  0  0  0  0  0  0  0  0  0  0  0
   12.0619    1.6462   22.5296 C   0  0  0  0  0  0  0  0  0  0  0  0
   10.6993    1.4944   22.7784 C   0  0  0  0  0  0  0  0  0  0  0  0
    9.9628    2.6661   23.3546 C   0  0  0  0  0  0  0  0  0  0  0  0
   10.5069    3.7557   23.5097 O   0  0  0  0  0  0  0  0  0  0  0  0
   12.5235    2.5803   22.8346 H   0  0  0  0  0  0  0  0  0  0  0  0
   13.8400    0.7319   21.7089 H   0  0  0  0  0  0  0  0  0  0  0  0
   10.2146   -1.4633   21.1774 H   0  0  0  0  0  0  0  0  0  0  0  0
    8.4925    0.6340   24.6555 H   0  0  0  0  0  0  0  0  0  0  0  0
    7.0229    1.1674   23.8016 H   0  0  0  0  0  0  0  0  0  0  0  0
    8.4116    4.2535   24.5707 H   0  0  0  0  0  0  0  0  0  0  0  0
    6.9795    3.2241   24.5538 H   0  0  0  0  0  0  0  0  0  0  0  0
    6.6612    3.6187   22.1202 H   0  0  0  0  0  0  0  0  0  0  0  0
    8.1675    4.5053   22.0339 H   0  0  0  0  0  0  0  0  0  0  0  0
    5.9878    5.7037   22.0784 H   0  0  0  0  0  0  0  0  0  0  0  0
    7.9651    6.7998   21.8560 H   0  0  0  0  0  0  0  0  0  0  0  0
    7.2745    8.9574   23.0062 H   0  0  0  0  0  0  0  0  0  0  0  0
    5.9779    8.1220   22.1174 H   0  0  0  0  0  0  0  0  0  0  0  0
    4.3509    7.1019   25.0593 H   0  0  0  0  0  0  0  0  0  0  0  0
    4.2841    7.1523   23.2851 H   0  0  0  0  0  0  0  0  0  0  0  0
    6.1108    5.4245   24.9964 H   0  0  0  0  0  0  0  0  0  0  0  0
    3.7540    4.6043   24.6429 H   0  0  0  0  0  0  0  0  0  0  0  0
    3.9680    4.8125   22.8932 H   0  0  0  0  0  0  0  0  0  0  0  0
    4.8852    3.5659   23.7538 H   0  0  0  0  0  0  0  0  0  0  0  0
  1  2  1  0
  2  3  1  0
  3  4  1  0
  4  5  1  0
  5  6  1  0
  6  7  1  0
  7  8  1  0
  7  9  1  0
  7 10  1  0
  6 11  1  0
 11 12  1  0
 12 13  1  0
 13 14  1  0
 14 15  1  0
 16 15  1  1
 16 17  1  0
 17 18  2  0
 17 19  1  0
 19 20  1  0
 20 21  2  0
 21 22  1  0
 22 23  2  0
 23 24  1  0
 24 25  2  0
 25 26  1  0
 26 27  2  0
 27 28  1  0
 28 29  2  0
 28 30  1  0
 27 31  1  0
 26 32  1  0
 25 33  1  0
 23 34  1  0
 21 35  1  0
 19 36  1  0
 36 37  1  0
 37 38  1  0
 38 39  1  0
 38 40  1  0
 38 41  1  0
 37 42  1  6
 36 43  1  0
 36 44  1  0
 16 45  1  0
 45 46  2  0
 46 47  1  0
 47 48  1  0
 47 49  2  0
 49 50  1  0
 50 51  2  0
 51 52  1  0
 52 53  2  0
 50 54  1  0
 49 55  1  0
 46 56  1  0
 15 57  1  0
 15 58  1  0
 13 59  1  0
 13 60  1  0
 12 61  1  0
 12 62  1  0
 11 63  1  0
  6 64  1  6
  5 65  1  0
  5 66  1  0
  3 67  1  0
  3 68  1  0
  2 69  1  1
  1 70  1  0
  1 71  1  0
  1 72  1  0
 11  2  1  0
 52 14  1  0
 37 16  1  0
 51 45  1  0
 29 20  1  0
 29 24  1  0
M  CHG  1  11   1
M  END
>  <cnnaffinities>  (1) 
[6.6558, 6.38195, 6.40349, 6.57662, 6.27095]

>  <score>  (1) 
6.6558

>  <index>  (1) 
83

>  <Smiles>  (1) 
C([C@@]1(C(OC([C@@](C([H])([H])[H])([N+]1(C(C(N1C([C@@]2(C(=O)N(c3c(nc(c4c(c(c(c(c34)[H])[H])[H])[H])[H])[H])C([C@@]2(C([H])([H])[H])[H])([H])[H])c2c(c(Cl)c(c(c2C1=O)[H])[H])[H])([H])[H])([H])[H])([H])[H])[H])[H])([H])[H])([H])[H])[H])([H])([H])[H]

>  <h>  (1) 
<NA>

>  <Training>  (1) 
True

>  <Success>  (1) 
True

>  <enamine_searched>  (1) 
False

>  <enamine_id>  (1) 
nan

$$$$
