
     RDKit          3D

 59 64  0  0  0  0  0  0  0  0999 V2000
    7.9797   -1.5658   24.2256 C   0  0  0  0  0  0  0  0  0  0  0  0
    8.1045   -1.1258   22.7693 C   0  0  1  0  0  0  0  0  0  0  0  0
    6.7934   -1.3249   21.9955 C   0  0  0  0  0  0  0  0  0  0  0  0
    6.8480   -0.3096   20.9761 N   0  0  0  0  0  0  0  0  0  0  0  0
    5.8832   -0.1669   19.9529 C   0  0  0  0  0  0  0  0  0  0  0  0
    6.0833   -0.7870   18.7495 C   0  0  0  0  0  0  0  0  0  0  0  0
    5.2638   -0.6535   17.6782 N   0  0  0  0  0  0  0  0  0  0  0  0
    4.1989    0.0985   17.8264 C   0  0  0  0  0  0  0  0  0  0  0  0
    3.8559    0.7677   19.0377 C   0  0  0  0  0  0  0  0  0  0  0  0
    2.6801    1.5539   19.1645 C   0  0  0  0  0  0  0  0  0  0  0  0
    2.3600    2.1443   20.3550 C   0  0  0  0  0  0  0  0  0  0  0  0
    3.2185    2.0153   21.4707 C   0  0  0  0  0  0  0  0  0  0  0  0
    4.3755    1.2793   21.3717 C   0  0  0  0  0  0  0  0  0  0  0  0
    4.7179    0.6341   20.1493 C   0  0  0  0  0  0  0  0  0  0  0  0
    5.0436    1.2298   22.2285 H   0  0  0  0  0  0  0  0  0  0  0  0
    2.9670    2.5148   22.4034 H   0  0  0  0  0  0  0  0  0  0  0  0
    1.4475    2.7284   20.4509 H   0  0  0  0  0  0  0  0  0  0  0  0
    2.0566    1.6941   18.2870 H   0  0  0  0  0  0  0  0  0  0  0  0
    3.5226    0.1955   16.9735 H   0  0  0  0  0  0  0  0  0  0  0  0
    6.9561   -1.4247   18.6117 H   0  0  0  0  0  0  0  0  0  0  0  0
    7.8133    0.6515   21.1733 C   0  0  0  0  0  0  0  0  0  0  0  0
    8.0237    1.5674   20.4127 O   0  0  0  0  0  0  0  0  0  0  0  0
    8.5446    0.3445   22.4948 C   0  0  1  0  0  0  0  0  0  0  0  0
    8.0750    1.2932   23.6212 C   0  0  0  0  0  0  0  0  0  0  0  0
    8.5721    2.6470   23.4591 N   0  0  0  0  0  0  0  0  0  0  0  0
    7.7254    3.7700   23.8083 C   0  0  0  0  0  0  0  0  0  0  0  0
    7.1296    4.4230   22.5948 C   0  0  0  0  0  0  0  0  0  0  0  0
    6.1899    3.8370   21.8770 N   0  0  0  0  0  0  0  0  0  0  0  0
    5.8630    4.7531   20.9052 C   0  0  0  0  0  0  0  0  0  0  0  0
    6.6264    5.8824   21.0372 C   0  0  0  0  0  0  0  0  0  0  0  0
    7.4275    5.6692   22.1335 N   0  0  0  0  0  0  0  0  0  0  0  0
    8.2747    6.6571   22.7814 C   0  0  0  0  0  0  0  0  0  0  0  0
    8.2998    7.5671   22.1789 H   0  0  0  0  0  0  0  0  0  0  0  0
    7.8637    6.9196   23.7610 H   0  0  0  0  0  0  0  0  0  0  0  0
    9.2917    6.2803   22.9001 H   0  0  0  0  0  0  0  0  0  0  0  0
    6.7235    6.7926   20.4634 H   0  0  0  0  0  0  0  0  0  0  0  0
    5.1075    4.5624   20.1568 H   0  0  0  0  0  0  0  0  0  0  0  0
    8.3251    4.4573   24.4121 H   0  0  0  0  0  0  0  0  0  0  0  0
    6.8964    3.3814   24.4118 H   0  0  0  0  0  0  0  0  0  0  0  0
    9.8802    2.9083   23.1690 C   0  0  0  0  0  0  0  0  0  0  0  0
   10.3708    4.0301   23.2463 O   0  0  0  0  0  0  0  0  0  0  0  0
   10.6698    1.7366   22.6904 C   0  0  0  0  0  0  0  0  0  0  0  0
   12.0314    1.9402   22.4701 C   0  0  0  0  0  0  0  0  0  0  0  0
   12.8139    0.9249   21.9542 C   0  0  0  0  0  0  0  0  0  0  0  0
   12.1814   -0.2711   21.6251 C   0  0  0  0  0  0  0  0  0  0  0  0
   12.9260   -1.2825   21.1387 F   0  0  0  0  0  0  0  0  0  0  0  0
   10.8166   -0.4563   21.7255 C   0  0  0  0  0  0  0  0  0  0  0  0
   10.0392    0.5366   22.3305 C   0  0  0  0  0  0  0  0  0  0  0  0
   10.3741   -1.3672   21.3311 H   0  0  0  0  0  0  0  0  0  0  0  0
   13.8816    1.0334   21.7830 H   0  0  0  0  0  0  0  0  0  0  0  0
   12.4370    2.9156   22.7244 H   0  0  0  0  0  0  0  0  0  0  0  0
    8.4360    0.8803   24.5708 H   0  0  0  0  0  0  0  0  0  0  0  0
    6.9793    1.3268   23.6578 H   0  0  0  0  0  0  0  0  0  0  0  0
    6.7248   -2.3185   21.5378 H   0  0  0  0  0  0  0  0  0  0  0  0
    5.9207   -1.1890   22.6535 H   0  0  0  0  0  0  0  0  0  0  0  0
    8.8500   -1.7671   22.2998 H   0  0  0  0  0  0  0  0  0  0  0  0
    7.1766   -1.0137   24.7284 H   0  0  0  0  0  0  0  0  0  0  0  0
    7.7277   -2.6313   24.2853 H   0  0  0  0  0  0  0  0  0  0  0  0
    8.9061   -1.4142   24.7913 H   0  0  0  0  0  0  0  0  0  0  0  0
  1  2  1  0
  2  3  1  0
  3  4  1  0
  4  5  1  0
  5  6  2  0
  6  7  1  0
  7  8  2  0
  8  9  1  0
  9 10  2  0
 10 11  1  0
 11 12  2  0
 12 13  1  0
 13 14  2  0
 13 15  1  0
 12 16  1  0
 11 17  1  0
 10 18  1  0
  8 19  1  0
  6 20  1  0
  4 21  1  0
 21 22  2  0
 21 23  1  0
 23 24  1  1
 24 25  1  0
 25 26  1  0
 26 27  1  0
 27 28  2  0
 28 29  1  0
 29 30  2  0
 30 31  1  0
 31 32  1  0
 32 33  1  0
 32 34  1  0
 32 35  1  0
 30 36  1  0
 29 37  1  0
 26 38  1  0
 26 39  1  0
 25 40  1  0
 40 41  2  0
 40 42  1  0
 42 43  2  0
 43 44  1  0
 44 45  2  0
 45 46  1  0
 45 47  1  0
 47 48  2  0
 47 49  1  0
 44 50  1  0
 43 51  1  0
 24 52  1  0
 24 53  1  0
  3 54  1  0
  3 55  1  0
  2 56  1  6
  1 57  1  0
  1 58  1  0
  1 59  1  0
 23  2  1  0
 31 27  1  0
 48 42  1  0
 14  5  1  0
 48 23  1  0
 14  9  1  0
M  END
>  <cnnaffinities>  (1) 
[6.02154, 6.11455, 6.12123]

>  <score>  (1) 
6.02154

>  <index>  (1) 
71

>  <Smiles>  (1) 
C([C@]1(C(N(c2c(nc(c3c(c(c(c(c23)[H])[H])[H])[H])[H])[H])C(=O)[C@]21C(N(C(c1nc(c(n1C([H])([H])[H])[H])[H])([H])[H])C(=O)c1c(c(c(F)c(c21)[H])[H])[H])([H])[H])([H])[H])[H])([H])([H])[H]

>  <h>  (1) 
<NA>

>  <Training>  (1) 
True

>  <Success>  (1) 
True

>  <enamine_searched>  (1) 
False

>  <enamine_id>  (1) 
nan

$$$$
