
     RDKit          3D

 47 50  0  0  0  0  0  0  0  0999 V2000
    5.3166   -2.0058   21.8448 O   0  0  0  0  0  0  0  0  0  0  0  0
    6.4487   -1.5554   21.9060 C   0  0  0  0  0  0  0  0  0  0  0  0
    6.8718   -0.3514   21.0668 C   0  0  0  0  0  0  0  0  0  0  0  0
    5.9154   -0.1152   19.9539 C   0  0  0  0  0  0  0  0  0  0  0  0
    6.1221   -0.7295   18.7521 C   0  0  0  0  0  0  0  0  0  0  0  0
    5.3195   -0.6107   17.6662 N   0  0  0  0  0  0  0  0  0  0  0  0
    4.2477    0.1355   17.8188 C   0  0  0  0  0  0  0  0  0  0  0  0
    3.8843    0.7903   19.0287 C   0  0  0  0  0  0  0  0  0  0  0  0
    2.7199    1.5861   19.1500 C   0  0  0  0  0  0  0  0  0  0  0  0
    2.3920    2.1614   20.3496 C   0  0  0  0  0  0  0  0  0  0  0  0
    3.2186    1.9778   21.4809 C   0  0  0  0  0  0  0  0  0  0  0  0
    4.3647    1.2365   21.3857 C   0  0  0  0  0  0  0  0  0  0  0  0
    4.7318    0.6404   20.1493 C   0  0  0  0  0  0  0  0  0  0  0  0
    4.9889    1.0930   22.2646 H   0  0  0  0  0  0  0  0  0  0  0  0
    2.9467    2.4472   22.4238 H   0  0  0  0  0  0  0  0  0  0  0  0
    1.4891    2.7543   20.4428 H   0  0  0  0  0  0  0  0  0  0  0  0
    2.1096    1.7492   18.2665 H   0  0  0  0  0  0  0  0  0  0  0  0
    3.5900    0.2282   16.9557 H   0  0  0  0  0  0  0  0  0  0  0  0
    7.0051   -1.3585   18.6274 H   0  0  0  0  0  0  0  0  0  0  0  0
    6.9741    0.5269   21.7134 H   0  0  0  0  0  0  0  0  0  0  0  0
    7.8573   -0.5739   20.6422 H   0  0  0  0  0  0  0  0  0  0  0  0
    7.4197   -2.1003   22.6975 N   0  0  0  0  0  0  0  0  0  0  0  0
    7.2977   -3.5120   23.0555 C   0  0  0  0  0  0  0  0  0  0  0  0
    7.7170   -3.7396   24.5054 C   0  0  0  0  0  0  0  0  0  0  0  0
    9.0491   -3.0549   24.8761 C   0  0  1  0  0  0  0  0  0  0  0  0
   10.2293   -3.8434   24.2713 C   0  0  0  0  0  0  0  0  0  0  0  0
   11.6049   -3.2152   24.5178 C   0  0  0  0  0  0  0  0  0  0  0  0
   11.6349   -1.7439   24.1460 C   0  0  0  0  0  0  0  0  0  0  0  0
   11.6247   -1.6525   22.7662 F   0  0  0  0  0  0  0  0  0  0  0  0
   12.8254   -1.1880   24.5368 F   0  0  0  0  0  0  0  0  0  0  0  0
   10.4693   -0.9447   24.7144 C   0  0  0  0  0  0  0  0  0  0  0  0
    9.0986   -1.5834   24.4053 C   0  0  1  0  0  0  0  0  0  0  0  0
    8.7352   -1.5034   22.9168 C   0  0  0  0  0  0  0  0  0  0  0  0
    8.7522   -0.4504   22.6090 H   0  0  0  0  0  0  0  0  0  0  0  0
    9.4957   -2.0179   22.3186 H   0  0  0  0  0  0  0  0  0  0  0  0
    8.3385   -1.0069   24.9508 H   0  0  0  0  0  0  0  0  0  0  0  0
   10.5162    0.0830   24.3312 H   0  0  0  0  0  0  0  0  0  0  0  0
   10.5990   -0.9073   25.8039 H   0  0  0  0  0  0  0  0  0  0  0  0
   11.9053   -3.3267   25.5634 H   0  0  0  0  0  0  0  0  0  0  0  0
   12.3667   -3.6908   23.9011 H   0  0  0  0  0  0  0  0  0  0  0  0
   10.0924   -3.9229   23.1828 H   0  0  0  0  0  0  0  0  0  0  0  0
   10.2152   -4.8577   24.6863 H   0  0  0  0  0  0  0  0  0  0  0  0
    9.1281   -3.0448   25.9787 H   0  0  0  0  0  0  0  0  0  0  0  0
    7.7975   -4.8197   24.6904 H   0  0  0  0  0  0  0  0  0  0  0  0
    6.9106   -3.3779   25.1507 H   0  0  0  0  0  0  0  0  0  0  0  0
    6.2519   -3.8053   22.9094 H   0  0  0  0  0  0  0  0  0  0  0  0
    7.9099   -4.1213   22.3679 H   0  0  0  0  0  0  0  0  0  0  0  0
  1  2  2  0
  2  3  1  0
  3  4  1  0
  4  5  2  0
  5  6  1  0
  6  7  2  0
  7  8  1  0
  8  9  2  0
  9 10  1  0
 10 11  2  0
 11 12  1  0
 12 13  2  0
 12 14  1  0
 11 15  1  0
 10 16  1  0
  9 17  1  0
  7 18  1  0
  5 19  1  0
  3 20  1  0
  3 21  1  0
  2 22  1  0
 22 23  1  0
 23 24  1  0
 24 25  1  0
 25 26  1  0
 26 27  1  0
 27 28  1  0
 28 29  1  0
 28 30  1  0
 28 31  1  0
 31 32  1  0
 32 33  1  0
 33 34  1  0
 33 35  1  0
 32 36  1  1
 31 37  1  0
 31 38  1  0
 27 39  1  0
 27 40  1  0
 26 41  1  0
 26 42  1  0
 25 43  1  1
 24 44  1  0
 24 45  1  0
 23 46  1  0
 23 47  1  0
 13  4  1  0
 33 22  1  0
 13  8  1  0
 32 25  1  0
M  END
>  <cnnaffinities>  (1) 
[5.82527, 5.78101, 5.78599, 5.38251, 5.38252, 5.86894, 5.56959, 5.56957, 5.67149, 5.47461]

>  <score>  (1) 
5.82527

>  <index>  (1) 
66

>  <Smiles>  (1) 
O=C(C(c1c(nc(c2c(c(c(c(c12)[H])[H])[H])[H])[H])[H])([H])[H])N1C(C([C@]2(C(C(C(F)(F)C([C@]2(C1([H])[H])[H])([H])[H])([H])[H])([H])[H])[H])([H])[H])([H])[H]

>  <h>  (1) 
<NA>

>  <Training>  (1) 
True

>  <Success>  (1) 
True

>  <enamine_searched>  (1) 
False

>  <enamine_id>  (1) 
nan

$$$$
