
     RDKit          3D

 66 71  0  0  0  0  0  0  0  0999 V2000
    7.1871    6.3696   21.7976 C   0  0  0  0  0  0  0  0  0  0  0  0
    7.3886    5.5382   22.9670 N   0  0  0  0  0  0  0  0  0  0  0  0
    6.7358    4.3408   23.0355 C   0  0  0  0  0  0  0  0  0  0  0  0
    5.8900    3.9774   22.2334 O   0  0  0  0  0  0  0  0  0  0  0  0
    7.1666    3.4709   24.2182 C   0  0  0  0  0  0  0  0  0  0  0  0
    8.1392    2.4759   23.7864 N   0  0  0  0  0  0  0  0  0  0  0  0
    7.8187    1.0576   23.8198 C   0  0  0  0  0  0  0  0  0  0  0  0
    8.4220    0.2774   22.6148 C   0  0  2  0  0  0  0  0  0  0  0  0
    7.7092    0.6581   21.3005 C   0  0  0  0  0  0  0  0  0  0  0  0
    7.8607    1.6513   20.6218 O   0  0  0  0  0  0  0  0  0  0  0  0
    6.8135   -0.3407   20.9978 N   0  0  0  0  0  0  0  0  0  0  0  0
    5.8804   -0.1753   19.9566 C   0  0  0  0  0  0  0  0  0  0  0  0
    6.0843   -0.7887   18.7493 C   0  0  0  0  0  0  0  0  0  0  0  0
    5.2774   -0.6431   17.6718 N   0  0  0  0  0  0  0  0  0  0  0  0
    4.2149    0.1138   17.8205 C   0  0  0  0  0  0  0  0  0  0  0  0
    3.8663    0.7745   19.0337 C   0  0  0  0  0  0  0  0  0  0  0  0
    2.6927    1.5653   19.1548 C   0  0  0  0  0  0  0  0  0  0  0  0
    2.3647    2.1485   20.3459 C   0  0  0  0  0  0  0  0  0  0  0  0
    3.2201    2.0148   21.4629 C   0  0  0  0  0  0  0  0  0  0  0  0
    4.3816    1.2900   21.3624 C   0  0  0  0  0  0  0  0  0  0  0  0
    4.7223    0.6356   20.1462 C   0  0  0  0  0  0  0  0  0  0  0  0
    5.0579    1.2382   22.2126 H   0  0  0  0  0  0  0  0  0  0  0  0
    2.9724    2.5080   22.3965 H   0  0  0  0  0  0  0  0  0  0  0  0
    1.4459    2.7207   20.4413 H   0  0  0  0  0  0  0  0  0  0  0  0
    2.0761    1.7061   18.2734 H   0  0  0  0  0  0  0  0  0  0  0  0
    3.5569    0.2196   16.9584 H   0  0  0  0  0  0  0  0  0  0  0  0
    6.9621   -1.4177   18.6121 H   0  0  0  0  0  0  0  0  0  0  0  0
    6.8456   -1.4830   21.8754 C   0  0  0  0  0  0  0  0  0  0  0  0
    8.1298   -1.2498   22.6749 C   0  0  2  0  0  0  0  0  0  0  0  0
    8.0965   -1.9220   24.0516 C   0  0  0  0  0  0  0  0  0  0  0  0
    8.0140   -3.3623   23.9326 N   0  0  0  0  0  0  0  0  0  0  0  0
    6.8457   -4.0630   23.9845 C   0  0  0  0  0  0  0  0  0  0  0  0
    6.8511   -5.4560   23.7172 C   0  0  0  0  0  0  0  0  0  0  0  0
    5.7595   -6.1914   23.7382 N   0  0  0  0  0  0  0  0  0  0  0  0
    4.6170   -5.5549   24.0444 C   0  0  0  0  0  0  0  0  0  0  0  0
    4.6082   -4.2031   24.3254 C   0  0  0  0  0  0  0  0  0  0  0  0
    5.7125   -3.4410   24.2963 N   0  0  0  0  0  0  0  0  0  0  0  0
    3.6821   -3.7021   24.5865 H   0  0  0  0  0  0  0  0  0  0  0  0
    3.7024   -6.1421   24.0619 H   0  0  0  0  0  0  0  0  0  0  0  0
    7.7882   -5.9552   23.4843 H   0  0  0  0  0  0  0  0  0  0  0  0
    8.8410   -3.8728   23.6677 H   0  0  0  0  0  0  0  0  0  0  0  0
    7.2164   -1.6051   24.6235 H   0  0  0  0  0  0  0  0  0  0  0  0
    9.0014   -1.6699   24.6168 H   0  0  0  0  0  0  0  0  0  0  0  0
    8.9279   -1.7270   22.1000 H   0  0  0  0  0  0  0  0  0  0  0  0
    6.8798   -2.4179   21.3061 H   0  0  0  0  0  0  0  0  0  0  0  0
    5.9560   -1.5315   22.5168 H   0  0  0  0  0  0  0  0  0  0  0  0
    9.8870    0.6403   22.5188 C   0  0  0  0  0  0  0  0  0  0  0  0
   10.8077   -0.2123   21.8957 C   0  0  0  0  0  0  0  0  0  0  0  0
   12.1537    0.1035   21.9041 C   0  0  0  0  0  0  0  0  0  0  0  0
   13.2973   -1.0674   21.3001 Cl  0  0  0  0  0  0  0  0  0  0  0  0
   12.6255    1.3169   22.4084 C   0  0  0  0  0  0  0  0  0  0  0  0
   11.6986    2.2186   22.9076 C   0  0  0  0  0  0  0  0  0  0  0  0
   10.3445    1.8883   22.9647 C   0  0  0  0  0  0  0  0  0  0  0  0
    9.3915    2.9141   23.4890 C   0  0  0  0  0  0  0  0  0  0  0  0
    9.7192    4.0928   23.6227 O   0  0  0  0  0  0  0  0  0  0  0  0
   11.9978    3.2021   23.2542 H   0  0  0  0  0  0  0  0  0  0  0  0
   13.6911    1.5314   22.3834 H   0  0  0  0  0  0  0  0  0  0  0  0
   10.5073   -1.1168   21.3712 H   0  0  0  0  0  0  0  0  0  0  0  0
    8.2119    0.6329   24.7512 H   0  0  0  0  0  0  0  0  0  0  0  0
    6.7292    0.9589   23.8341 H   0  0  0  0  0  0  0  0  0  0  0  0
    7.5839    4.0974   25.0128 H   0  0  0  0  0  0  0  0  0  0  0  0
    6.2932    2.9534   24.6193 H   0  0  0  0  0  0  0  0  0  0  0  0
    8.3308    5.4874   23.3338 H   0  0  0  0  0  0  0  0  0  0  0  0
    7.4276    5.8291   20.8775 H   0  0  0  0  0  0  0  0  0  0  0  0
    6.1443    6.6893   21.7425 H   0  0  0  0  0  0  0  0  0  0  0  0
    7.8297    7.2475   21.8940 H   0  0  0  0  0  0  0  0  0  0  0  0
  1  2  1  0
  2  3  1  0
  3  4  2  0
  3  5  1  0
  5  6  1  0
  6  7  1  0
  8  7  1  1
  8  9  1  0
  9 10  2  0
  9 11  1  0
 11 12  1  0
 12 13  2  0
 13 14  1  0
 14 15  2  0
 15 16  1  0
 16 17  2  0
 17 18  1  0
 18 19  2  0
 19 20  1  0
 20 21  2  0
 20 22  1  0
 19 23  1  0
 18 24  1  0
 17 25  1  0
 15 26  1  0
 13 27  1  0
 11 28  1  0
 28 29  1  0
 29 30  1  0
 30 31  1  0
 31 32  1  0
 32 33  2  0
 33 34  1  0
 34 35  2  0
 35 36  1  0
 36 37  2  0
 36 38  1  0
 35 39  1  0
 33 40  1  0
 31 41  1  0
 30 42  1  0
 30 43  1  0
 29 44  1  6
 28 45  1  0
 28 46  1  0
  8 47  1  0
 47 48  2  0
 48 49  1  0
 49 50  1  0
 49 51  2  0
 51 52  1  0
 52 53  2  0
 53 54  1  0
 54 55  2  0
 52 56  1  0
 51 57  1  0
 48 58  1  0
  7 59  1  0
  7 60  1  0
  5 61  1  0
  5 62  1  0
  2 63  1  0
  1 64  1  0
  1 65  1  0
  1 66  1  0
 54  6  1  0
 29  8  1  0
 37 32  1  0
 53 47  1  0
 21 12  1  0
 21 16  1  0
M  END
>  <cnnaffinities>  (1) 
[6.94177, 6.72541, 6.54097]

>  <score>  (1) 
6.94177

>  <index>  (1) 
54

>  <Smiles>  (1) 
C(N(C(=O)C(N1C([C@@]2(C(=O)N(c3c(nc(c4c(c(c(c(c34)[H])[H])[H])[H])[H])[H])C([C@@]2(C(N(c2c(nc(c(n2)[H])[H])[H])[H])([H])[H])[H])([H])[H])c2c(c(Cl)c(c(c2C1=O)[H])[H])[H])([H])[H])([H])[H])[H])([H])([H])[H]

>  <h>  (1) 
<NA>

>  <Training>  (1) 
True

>  <Success>  (1) 
True

>  <enamine_searched>  (1) 
False

>  <enamine_id>  (1) 
nan

$$$$
