
     RDKit          3D

 57 60  0  0  0  0  0  0  0  0999 V2000
    8.9243    7.1552   21.8311 C   0  0  0  0  0  0  0  0  0  0  0  0
    8.9156    7.0584   22.2385 C   0  0  0  0  0  0  0  0  0  0  0  0
    7.5312    7.3317   24.0280 C   0  0  0  0  0  0  0  0  0  0  0  0
    6.5049    7.0296   23.7622 H   0  0  0  0  0  0  0  0  0  0  0  0
    7.4608    8.3886   24.3583 H   0  0  0  0  0  0  0  0  0  0  0  0
    7.8449    6.7261   24.8890 H   0  0  0  0  0  0  0  0  0  0  0  0
    9.9913    7.7398   23.3232 C   0  0  0  0  0  0  0  0  0  0  0  0
   10.5289    7.2831   24.3280 N   0  0  0  0  0  0  0  0  0  0  0  0
    8.5096    5.5657   22.5387 C   0  0  0  0  0  0  0  0  0  0  0  0
    7.2885    5.0172   22.1570 C   0  0  0  0  0  0  0  0  0  0  0  0
    7.1170    3.6430   22.1506 C   0  0  0  0  0  0  0  0  0  0  0  0
    8.1360    2.8405   22.6677 C   0  0  0  0  0  0  0  0  0  0  0  0
    8.0007    1.4299   22.5740 N   0  0  0  0  0  0  0  0  0  0  0  0
    7.9094    0.6767   23.8163 C   0  0  0  0  0  0  0  0  0  0  0  0
    6.5599    0.8031   24.5098 C   0  0  0  0  0  0  0  0  0  0  0  0
    6.1113    2.0565   24.9329 C   0  0  0  0  0  0  0  0  0  0  0  0
    4.8870    2.1932   25.5727 C   0  0  0  0  0  0  0  0  0  0  0  0
    4.0802    1.0853   25.8080 C   0  0  0  0  0  0  0  0  0  0  0  0
    4.5299   -0.1595   25.3902 C   0  0  0  0  0  0  0  0  0  0  0  0
    3.5309   -1.5619   25.6493 Cl  0  0  0  0  0  0  0  0  0  0  0  0
    5.7563   -0.3115   24.7506 C   0  0  0  0  0  0  0  0  0  0  0  0
    6.0674   -1.3089   24.4461 H   0  0  0  0  0  0  0  0  0  0  0  0
    3.1242    1.1824   26.3114 H   0  0  0  0  0  0  0  0  0  0  0  0
    4.5543    3.1783   25.8871 H   0  0  0  0  0  0  0  0  0  0  0  0
    6.7256    2.9354   24.7585 H   0  0  0  0  0  0  0  0  0  0  0  0
    8.6885    1.0608   24.4836 H   0  0  0  0  0  0  0  0  0  0  0  0
    8.1519   -0.3739   23.6251 H   0  0  0  0  0  0  0  0  0  0  0  0
    7.6810    0.9445   21.3126 C   0  0  0  0  0  0  0  0  0  0  0  0
    7.9820    1.5588   20.3073 O   0  0  0  0  0  0  0  0  0  0  0  0
    6.9085   -0.3692   21.1895 C   0  0  0  0  0  0  0  0  0  0  0  0
    5.9349   -0.2343   20.0540 C   0  0  0  0  0  0  0  0  0  0  0  0
    6.2042   -0.7605   18.8181 C   0  0  0  0  0  0  0  0  0  0  0  0
    5.4470   -0.5727   17.7073 N   0  0  0  0  0  0  0  0  0  0  0  0
    4.3719    0.1679   17.8444 C   0  0  0  0  0  0  0  0  0  0  0  0
    3.9754    0.7900   19.0616 C   0  0  0  0  0  0  0  0  0  0  0  0
    2.8160    1.6033   19.1517 C   0  0  0  0  0  0  0  0  0  0  0  0
    2.4694    2.1992   20.3324 C   0  0  0  0  0  0  0  0  0  0  0  0
    3.2747    2.0090   21.4787 C   0  0  0  0  0  0  0  0  0  0  0  0
    4.4023    1.2260   21.4190 C   0  0  0  0  0  0  0  0  0  0  0  0
    4.7838    0.5928   20.2037 C   0  0  0  0  0  0  0  0  0  0  0  0
    5.0073    1.1180   22.3158 H   0  0  0  0  0  0  0  0  0  0  0  0
    3.0003    2.4968   22.4107 H   0  0  0  0  0  0  0  0  0  0  0  0
    1.5844    2.8277   20.3981 H   0  0  0  0  0  0  0  0  0  0  0  0
    2.2156    1.7517   18.2576 H   0  0  0  0  0  0  0  0  0  0  0  0
    3.7496    0.3067   16.9594 H   0  0  0  0  0  0  0  0  0  0  0  0
    7.0956   -1.3724   18.6759 H   0  0  0  0  0  0  0  0  0  0  0  0
    6.3958   -0.6078   22.1232 H   0  0  0  0  0  0  0  0  0  0  0  0
    7.6321   -1.1684   20.9827 H   0  0  0  0  0  0  0  0  0  0  0  0
    9.2171    3.4196   23.3170 C   0  0  0  0  0  0  0  0  0  0  0  0
    9.4064    4.8035   23.2806 C   0  0  0  0  0  0  0  0  0  0  0  0
   10.3149    5.1858   23.7679 H   0  0  0  0  0  0  0  0  0  0  0  0
    9.9381    2.7612   23.8116 H   0  0  0  0  0  0  0  0  0  0  0  0
    6.2051    3.1811   21.7697 H   0  0  0  0  0  0  0  0  0  0  0  0
    6.4329    5.6103   21.7808 H   0  0  0  0  0  0  0  0  0  0  0  0
    9.9066    6.8067   21.3427 H   0  0  0  0  0  0  0  0  0  0  0  0
    8.6496    7.0965   20.7311 H   0  0  0  0  0  0  0  0  0  0  0  0
    9.9486    8.8722   23.0055 H   0  0  0  0  0  0  0  0  0  0  0  0
  1  2  1  0
  2  3  1  0
  3  4  1  0
  3  5  1  0
  3  6  1  0
  2  7  1  0
  7  8  3  0
  2  9  1  0
  9 10  2  0
 10 11  1  0
 11 12  2  0
 12 13  1  0
 13 14  1  0
 14 15  1  0
 15 16  2  0
 16 17  1  0
 17 18  2  0
 18 19  1  0
 19 20  1  0
 19 21  2  0
 21 22  1  0
 18 23  1  0
 17 24  1  0
 16 25  1  0
 14 26  1  0
 14 27  1  0
 13 28  1  0
 28 29  2  0
 28 30  1  0
 30 31  1  0
 31 32  2  0
 32 33  1  0
 33 34  2  0
 34 35  1  0
 35 36  2  0
 36 37  1  0
 37 38  2  0
 38 39  1  0
 39 40  2  0
 39 41  1  0
 38 42  1  0
 37 43  1  0
 36 44  1  0
 34 45  1  0
 32 46  1  0
 30 47  1  0
 30 48  1  0
 12 49  1  0
 49 50  2  0
 50 51  1  0
 49 52  1  0
 11 53  1  0
 10 54  1  0
  1 55  1  0
  1 56  1  0
  1 57  1  0
 50  9  1  0
 21 15  1  0
 40 31  1  0
 40 35  1  0
M  END
>  <cnnaffinities>  (1) 
[6.19448]

>  <score>  (1) 
6.19448

>  <index>  (1) 
77

>  <Smiles>  (1) 
C(C(C([H])([H])[H])(C#N)c1c(c(c(N(C(c2c(c(c(c(Cl)c2[H])[H])[H])[H])([H])[H])C(=O)C(c2c(nc(c3c(c(c(c(c23)[H])[H])[H])[H])[H])[H])([H])[H])c(c1[H])[H])[H])[H])([H])([H])[H]

>  <h>  (1) 
<NA>

>  <Training>  (1) 
True

>  <Success>  (1) 
True

>  <enamine_searched>  (1) 
False

>  <enamine_id>  (1) 
nan

$$$$
