
     RDKit          3D

 56 61  0  0  0  0  0  0  0  0999 V2000
   10.0632    0.5567   22.4777 C   0  0  0  0  0  0  0  0  0  0  0  0
    8.6276    0.0273   22.4448 C   0  0  1  0  0  0  0  0  0  0  0  0
    7.9454    0.4486   21.1439 C   0  0  0  0  0  0  0  0  0  0  0  0
    6.7670   -0.3912   21.0906 N   0  0  0  0  0  0  0  0  0  0  0  0
    5.8546   -0.2402   20.0170 C   0  0  0  0  0  0  0  0  0  0  0  0
    6.1127   -0.7965   18.7896 C   0  0  0  0  0  0  0  0  0  0  0  0
    5.3462   -0.5990   17.6879 N   0  0  0  0  0  0  0  0  0  0  0  0
    4.2797    0.1534   17.8187 C   0  0  0  0  0  0  0  0  0  0  0  0
    3.8928    0.7876   19.0343 C   0  0  0  0  0  0  0  0  0  0  0  0
    2.7290    1.5935   19.1333 C   0  0  0  0  0  0  0  0  0  0  0  0
    2.3994    2.1904   20.3190 C   0  0  0  0  0  0  0  0  0  0  0  0
    3.2288    2.0357   21.4524 C   0  0  0  0  0  0  0  0  0  0  0  0
    4.3686    1.2732   21.3774 C   0  0  0  0  0  0  0  0  0  0  0  0
    4.7136    0.6092   20.1702 C   0  0  0  0  0  0  0  0  0  0  0  0
    5.0269    1.1786   22.2361 H   0  0  0  0  0  0  0  0  0  0  0  0
    2.9627    2.5275   22.3842 H   0  0  0  0  0  0  0  0  0  0  0  0
    1.5003    2.7969   20.3969 H   0  0  0  0  0  0  0  0  0  0  0  0
    2.1178    1.7365   18.2469 H   0  0  0  0  0  0  0  0  0  0  0  0
    3.6528    0.2886   16.9363 H   0  0  0  0  0  0  0  0  0  0  0  0
    6.9840   -1.4338   18.6445 H   0  0  0  0  0  0  0  0  0  0  0  0
    6.9814   -1.6049   21.7261 C   0  0  0  0  0  0  0  0  0  0  0  0
    6.2762   -2.5864   21.5953 O   0  0  0  0  0  0  0  0  0  0  0  0
    8.2472   -1.4968   22.6054 C   0  0  1  0  0  0  0  0  0  0  0  0
    9.2707   -2.4890   22.1231 C   0  0  0  0  0  0  0  0  0  0  0  0
   10.5328   -2.3885   23.0399 N   0  0  0  0  0  0  0  0  0  0  0  0
   10.5539   -2.3444   23.0372 C   0  0  0  0  0  0  0  0  0  0  0  0
   11.7434   -2.2348   20.9277 C   0  0  0  0  0  0  0  0  0  0  0  0
   12.9821   -2.1944   21.7813 N   0  0  0  0  0  0  0  0  0  0  0  0
   12.6791   -2.7033   23.1197 C   0  0  0  0  0  0  0  0  0  0  0  0
   12.4091   -3.7287   23.1887 H   0  0  0  0  0  0  0  0  0  0  0  0
   13.1457   -2.2409   23.9637 H   0  0  0  0  0  0  0  0  0  0  0  0
   13.3341   -1.2168   21.8157 H   0  0  0  0  0  0  0  0  0  0  0  0
   13.6734   -2.8067   21.3201 H   0  0  0  0  0  0  0  0  0  0  0  0
   11.6493   -3.1777   20.4179 H   0  0  0  0  0  0  0  0  0  0  0  0
   11.7089   -1.3832   20.2632 H   0  0  0  0  0  0  0  0  0  0  0  0
    8.4349   -3.8429   24.4231 H   0  0  0  0  0  0  0  0  0  0  0  0
   10.2572   -2.9737   24.3718 C   0  0  0  0  0  0  0  0  0  0  0  0
   10.9827   -3.4878   25.1813 O   0  0  0  0  0  0  0  0  0  0  0  0
    8.7696   -2.8501   24.7958 C   0  0  0  0  0  0  0  0  0  0  0  0
    8.5572   -2.7961   26.2688 C   0  0  0  0  0  0  0  0  0  0  0  0
    7.5222   -2.1202   26.8390 C   0  0  0  0  0  0  0  0  0  0  0  0
    6.6566   -1.3528   26.0485 C   0  0  0  0  0  0  0  0  0  0  0  0
    5.3323   -0.5313   26.8073 Cl  0  0  0  0  0  0  0  0  0  0  0  0
    6.8801   -1.2204   24.6844 C   0  0  0  0  0  0  0  0  0  0  0  0
    7.9461   -1.8237   24.0526 C   0  0  0  0  0  0  0  0  0  0  0  0
    6.1788   -0.6228   24.1073 H   0  0  0  0  0  0  0  0  0  0  0  0
    7.3508   -2.1705   27.9137 H   0  0  0  0  0  0  0  0  0  0  0  0
    9.2192   -3.3760   26.8937 H   0  0  0  0  0  0  0  0  0  0  0  0
    8.7843   -3.4611   22.0217 H   0  0  0  0  0  0  0  0  0  0  0  0
    9.5845   -2.2705   21.1202 H   0  0  0  0  0  0  0  0  0  0  0  0
    7.6772    1.5098   21.1422 H   0  0  0  0  0  0  0  0  0  0  0  0
    8.6137    0.2644   20.2882 H   0  0  0  0  0  0  0  0  0  0  0  0
    8.0890    0.5293   23.2611 H   0  0  0  0  0  0  0  0  0  0  0  0
   10.6841    0.1447   21.6726 H   0  0  0  0  0  0  0  0  0  0  0  0
   10.5332    0.4857   23.4624 H   0  0  0  0  0  0  0  0  0  0  0  0
   10.0110    1.6351   22.2729 H   0  0  0  0  0  0  0  0  0  0  0  0
  1  2  1  0
  2  3  1  0
  3  4  1  0
  4  5  1  0
  5  6  2  0
  6  7  1  0
  7  8  2  0
  8  9  1  0
  9 10  2  0
 10 11  1  0
 11 12  2  0
 12 13  1  0
 13 14  2  0
 13 15  1  0
 12 16  1  0
 11 17  1  0
 10 18  1  0
  8 19  1  0
  6 20  1  0
  4 21  1  0
 21 22  2  0
 21 23  1  0
 23 24  1  6
 24 25  1  0
 25 26  1  0
 26 27  1  0
 27 28  1  0
 28 29  1  0
 29 30  1  0
 29 31  1  0
 28 32  1  0
 28 33  1  0
 27 34  1  0
 27 35  1  0
 26 36  1  0
 25 37  1  0
 37 38  2  0
 37 39  1  0
 39 40  2  0
 40 41  1  0
 41 42  2  0
 42 43  1  0
 42 44  1  0
 44 45  2  0
 44 46  1  0
 41 47  1  0
 40 48  1  0
 24 49  1  0
 24 50  1  0
  3 51  1  0
  3 52  1  0
  2 53  1  1
  1 54  1  0
  1 55  1  0
  1 56  1  0
 23  2  1  0
 29 26  1  0
 45 39  1  0
 14  5  1  0
 45 23  1  0
 14  9  1  0
M  CHG  1  28   1
M  END
>  <cnnaffinities>  (1) 
[6.27587]

>  <score>  (1) 
6.27587

>  <index>  (1) 
73

>  <Smiles>  (1) 
C([C@]1(C(N(c2c(nc(c3c(c(c(c(c23)[H])[H])[H])[H])[H])[H])C(=O)[C@]21C(N(C1(C([N+](C1([H])[H])([H])[H])([H])[H])[H])C(=O)c1c(c(c(Cl)c(c21)[H])[H])[H])([H])[H])([H])[H])[H])([H])([H])[H]

>  <h>  (1) 
<NA>

>  <Training>  (1) 
True

>  <Success>  (1) 
True

>  <enamine_searched>  (1) 
False

>  <enamine_id>  (1) 
nan

$$$$
