
     RDKit          3D

 67 73  0  0  0  0  0  0  0  0999 V2000
   10.7017    3.7062   23.2738 O   0  0  0  0  0  0  0  0  0  0  0  0
   10.1162    2.6384   23.1573 C   0  0  0  0  0  0  0  0  0  0  0  0
   10.8007    1.4036   22.6547 C   0  0  0  0  0  0  0  0  0  0  0  0
   12.1786    1.4666   22.4495 C   0  0  0  0  0  0  0  0  0  0  0  0
   12.8527    0.4113   21.8695 C   0  0  0  0  0  0  0  0  0  0  0  0
   12.1154   -0.7005   21.4647 C   0  0  0  0  0  0  0  0  0  0  0  0
   12.9228   -2.0081   20.6504 Cl  0  0  0  0  0  0  0  0  0  0  0  0
   10.7484   -0.7748   21.6502 C   0  0  0  0  0  0  0  0  0  0  0  0
   10.0711    0.2582   22.3078 C   0  0  0  0  0  0  0  0  0  0  0  0
    8.5695    0.1791   22.5205 C   0  0  1  0  0  0  0  0  0  0  0  0
    8.1997    1.1857   23.6486 C   0  0  0  0  0  0  0  0  0  0  0  0
    8.7781    2.4966   23.4138 N   0  0  0  0  0  0  0  0  0  0  0  0
    7.9448    3.6908   23.4631 C   0  0  0  0  0  0  0  0  0  0  0  0
    7.6582    4.2345   24.8575 C   0  0  0  0  0  0  0  0  0  0  0  0
    8.2081    5.4168   25.2978 C   0  0  0  0  0  0  0  0  0  0  0  0
    7.9037    5.8518   26.5855 C   0  0  0  0  0  0  0  0  0  0  0  0
    7.1099    5.1816   27.4145 N   0  0  0  0  0  0  0  0  0  0  0  0
    6.5565    4.0487   27.0005 N   0  0  0  0  0  0  0  0  0  0  0  0
    6.8142    3.5925   25.7769 C   0  0  0  0  0  0  0  0  0  0  0  0
    6.2726    2.6846   25.5132 H   0  0  0  0  0  0  0  0  0  0  0  0
    8.3256    6.7694   26.9894 H   0  0  0  0  0  0  0  0  0  0  0  0
    8.8993    5.9751   24.6649 H   0  0  0  0  0  0  0  0  0  0  0  0
    7.0121    3.4557   22.9306 H   0  0  0  0  0  0  0  0  0  0  0  0
    8.4540    4.4680   22.8841 H   0  0  0  0  0  0  0  0  0  0  0  0
    7.1111    1.2931   23.7333 H   0  0  0  0  0  0  0  0  0  0  0  0
    8.5714    0.7803   24.6017 H   0  0  0  0  0  0  0  0  0  0  0  0
    7.8368    0.5507   21.2111 C   0  0  0  0  0  0  0  0  0  0  0  0
    8.0692    1.4822   20.4729 O   0  0  0  0  0  0  0  0  0  0  0  0
    6.8277   -0.3625   21.0014 N   0  0  0  0  0  0  0  0  0  0  0  0
    5.8855   -0.1692   19.9643 C   0  0  0  0  0  0  0  0  0  0  0  0
    6.0961   -0.7632   18.7503 C   0  0  0  0  0  0  0  0  0  0  0  0
    5.2812   -0.6299   17.6753 N   0  0  0  0  0  0  0  0  0  0  0  0
    4.2123    0.1150   17.8277 C   0  0  0  0  0  0  0  0  0  0  0  0
    3.8680    0.7797   19.0412 C   0  0  0  0  0  0  0  0  0  0  0  0
    2.6999    1.5757   19.1565 C   0  0  0  0  0  0  0  0  0  0  0  0
    2.3868    2.1808   20.3421 C   0  0  0  0  0  0  0  0  0  0  0  0
    3.2415    2.0513   21.4587 C   0  0  0  0  0  0  0  0  0  0  0  0
    4.3898    1.3056   21.3695 C   0  0  0  0  0  0  0  0  0  0  0  0
    4.7242    0.6406   20.1542 C   0  0  0  0  0  0  0  0  0  0  0  0
    5.0460    1.2212   22.2321 H   0  0  0  0  0  0  0  0  0  0  0  0
    2.9866    2.5496   22.3887 H   0  0  0  0  0  0  0  0  0  0  0  0
    1.4749    2.7627   20.4346 H   0  0  0  0  0  0  0  0  0  0  0  0
    2.0740    1.7021   18.2802 H   0  0  0  0  0  0  0  0  0  0  0  0
    3.5417    0.2101   16.9724 H   0  0  0  0  0  0  0  0  0  0  0  0
    6.9820   -1.3793   18.6157 H   0  0  0  0  0  0  0  0  0  0  0  0
    6.6829   -1.3486   22.0448 C   0  0  0  0  0  0  0  0  0  0  0  0
    8.0166   -1.2513   22.7965 C   0  0  2  0  0  0  0  0  0  0  0  0
    7.8614   -1.6644   24.2669 C   0  0  0  0  0  0  0  0  0  0  0  0
    7.4288   -3.0419   24.3881 N   0  0  0  0  0  0  0  0  0  0  0  0
    6.1447   -3.4218   24.6262 C   0  0  0  0  0  0  0  0  0  0  0  0
    5.7902   -4.7871   24.5819 C   0  0  0  0  0  0  0  0  0  0  0  0
    4.4750   -5.0969   24.8313 C   0  0  0  0  0  0  0  0  0  0  0  0
    3.5444   -4.1747   25.1263 N   0  0  0  0  0  0  0  0  0  0  0  0
    3.9857   -2.9262   25.1468 C   0  0  0  0  0  0  0  0  0  0  0  0
    5.2237   -2.4853   24.9042 N   0  0  0  0  0  0  0  0  0  0  0  0
    3.2460   -2.1606   25.3879 H   0  0  0  0  0  0  0  0  0  0  0  0
    4.1316   -6.1338   24.8008 H   0  0  0  0  0  0  0  0  0  0  0  0
    6.5307   -5.5513   24.3607 H   0  0  0  0  0  0  0  0  0  0  0  0
    8.1016   -3.7681   24.1884 H   0  0  0  0  0  0  0  0  0  0  0  0
    7.0896   -1.0592   24.7549 H   0  0  0  0  0  0  0  0  0  0  0  0
    8.8099   -1.5352   24.8048 H   0  0  0  0  0  0  0  0  0  0  0  0
    8.7061   -1.9628   22.3300 H   0  0  0  0  0  0  0  0  0  0  0  0
    5.8335   -1.1259   22.7088 H   0  0  0  0  0  0  0  0  0  0  0  0
    6.5110   -2.3459   21.6268 H   0  0  0  0  0  0  0  0  0  0  0  0
   10.2261   -1.6433   21.2631 H   0  0  0  0  0  0  0  0  0  0  0  0
   13.9239    0.4498   21.7035 H   0  0  0  0  0  0  0  0  0  0  0  0
   12.6969    2.3757   22.7301 H   0  0  0  0  0  0  0  0  0  0  0  0
  1  2  2  0
  2  3  1  0
  3  4  2  0
  4  5  1  0
  5  6  2  0
  6  7  1  0
  6  8  1  0
  8  9  2  0
  9 10  1  0
 10 11  1  1
 11 12  1  0
 12 13  1  0
 13 14  1  0
 14 15  2  0
 15 16  1  0
 16 17  2  0
 17 18  1  0
 18 19  2  0
 19 20  1  0
 16 21  1  0
 15 22  1  0
 13 23  1  0
 13 24  1  0
 11 25  1  0
 11 26  1  0
 10 27  1  0
 27 28  2  0
 27 29  1  0
 29 30  1  0
 30 31  2  0
 31 32  1  0
 32 33  2  0
 33 34  1  0
 34 35  2  0
 35 36  1  0
 36 37  2  0
 37 38  1  0
 38 39  2  0
 38 40  1  0
 37 41  1  0
 36 42  1  0
 35 43  1  0
 33 44  1  0
 31 45  1  0
 29 46  1  0
 46 47  1  0
 47 48  1  0
 48 49  1  0
 49 50  1  0
 50 51  2  0
 51 52  1  0
 52 53  2  0
 53 54  1  0
 54 55  2  0
 54 56  1  0
 52 57  1  0
 51 58  1  0
 49 59  1  0
 48 60  1  0
 48 61  1  0
 47 62  1  6
 46 63  1  0
 46 64  1  0
  8 65  1  0
  5 66  1  0
  4 67  1  0
 12  2  1  0
 19 14  1  0
 39 30  1  0
 55 50  1  0
  9  3  1  0
 47 10  1  0
 39 34  1  0
M  END
>  <cnnaffinities>  (1) 
[6.60933, 6.81427, 6.90687, 6.60106, 6.68944]

>  <score>  (1) 
6.60933

>  <index>  (1) 
3

>  <Smiles>  (1) 
O=C1c2c(c(c(Cl)c(c2[C@@]2(C(N1C(c1c(c(nnc1[H])[H])[H])([H])[H])([H])[H])C(=O)N(c1c(nc(c3c(c(c(c(c13)[H])[H])[H])[H])[H])[H])C([C@@]2(C(N(c1c(c(nc(n1)[H])[H])[H])[H])([H])[H])[H])([H])[H])[H])[H])[H]

>  <h>  (1) 
<NA>

>  <Training>  (1) 
True

>  <Success>  (1) 
True

>  <enamine_searched>  (1) 
False

>  <enamine_id>  (1) 
nan

$$$$
