
     RDKit          3D

 68 73  0  0  0  0  0  0  0  0999 V2000
    7.1303    6.3901   21.9405 C   0  0  0  0  0  0  0  0  0  0  0  0
    7.2749    5.5463   23.1069 N   0  0  0  0  0  0  0  0  0  0  0  0
    6.6559    4.3328   23.1126 C   0  0  0  0  0  0  0  0  0  0  0  0
    5.8410    3.9781   22.2779 O   0  0  0  0  0  0  0  0  0  0  0  0
    7.0858    3.4266   24.2708 C   0  0  0  0  0  0  0  0  0  0  0  0
    8.0776    2.4606   23.8163 N   0  0  0  0  0  0  0  0  0  0  0  0
    7.7914    1.0341   23.8351 C   0  0  0  0  0  0  0  0  0  0  0  0
    8.4178    0.2853   22.6190 C   0  0  2  0  0  0  0  0  0  0  0  0
    7.6879    0.6656   21.3136 C   0  0  0  0  0  0  0  0  0  0  0  0
    7.8166    1.6629   20.6401 O   0  0  0  0  0  0  0  0  0  0  0  0
    6.8019   -0.3436   21.0129 N   0  0  0  0  0  0  0  0  0  0  0  0
    5.8736   -0.1833   19.9661 C   0  0  0  0  0  0  0  0  0  0  0  0
    6.0806   -0.7951   18.7575 C   0  0  0  0  0  0  0  0  0  0  0  0
    5.2775   -0.6472   17.6778 N   0  0  0  0  0  0  0  0  0  0  0  0
    4.2158    0.1114   17.8267 C   0  0  0  0  0  0  0  0  0  0  0  0
    3.8653    0.7724   19.0395 C   0  0  0  0  0  0  0  0  0  0  0  0
    2.6922    1.5639   19.1575 C   0  0  0  0  0  0  0  0  0  0  0  0
    2.3620    2.1485   20.3483 C   0  0  0  0  0  0  0  0  0  0  0  0
    3.2157    2.0153   21.4658 C   0  0  0  0  0  0  0  0  0  0  0  0
    4.3760    1.2888   21.3680 C   0  0  0  0  0  0  0  0  0  0  0  0
    4.7184    0.6325   20.1528 C   0  0  0  0  0  0  0  0  0  0  0  0
    5.0476    1.2353   22.2216 H   0  0  0  0  0  0  0  0  0  0  0  0
    2.9686    2.5122   22.3981 H   0  0  0  0  0  0  0  0  0  0  0  0
    1.4426    2.7198   20.4404 H   0  0  0  0  0  0  0  0  0  0  0  0
    2.0773    1.7040   18.2754 H   0  0  0  0  0  0  0  0  0  0  0  0
    3.5607    0.2167   16.9637 H   0  0  0  0  0  0  0  0  0  0  0  0
    6.9595   -1.4243   18.6249 H   0  0  0  0  0  0  0  0  0  0  0  0
    6.8729   -1.5033   21.8651 C   0  0  0  0  0  0  0  0  0  0  0  0
    8.1602   -1.2518   22.6575 C   0  0  2  0  0  0  0  0  0  0  0  0
    8.1656   -1.9339   24.0308 C   0  0  0  0  0  0  0  0  0  0  0  0
    8.1514   -3.3786   23.9580 N   0  0  0  0  0  0  0  0  0  0  0  0
    6.9937   -4.1429   23.9178 C   0  0  0  0  0  0  0  0  0  0  0  0
    5.6547   -3.7884   24.2247 C   0  0  0  0  0  0  0  0  0  0  0  0
    4.8411   -4.8404   24.1357 N   0  0  0  0  0  0  0  0  0  0  0  0
    5.6223   -5.8595   23.7718 N   0  0  0  0  0  0  0  0  0  0  0  0
    5.0629   -7.1852   23.6191 C   0  0  0  0  0  0  0  0  0  0  0  0
    5.1710   -7.7777   24.5364 H   0  0  0  0  0  0  0  0  0  0  0  0
    5.5773   -7.6914   22.7983 H   0  0  0  0  0  0  0  0  0  0  0  0
    4.0014   -7.0823   23.3803 H   0  0  0  0  0  0  0  0  0  0  0  0
    6.9251   -5.4943   23.6304 C   0  0  0  0  0  0  0  0  0  0  0  0
    7.6950   -6.2040   23.3364 H   0  0  0  0  0  0  0  0  0  0  0  0
    5.2386   -2.8222   24.4964 H   0  0  0  0  0  0  0  0  0  0  0  0
    8.9535   -3.8232   23.5355 H   0  0  0  0  0  0  0  0  0  0  0  0
    9.0656   -1.6289   24.5792 H   0  0  0  0  0  0  0  0  0  0  0  0
    7.2874   -1.6255   24.6138 H   0  0  0  0  0  0  0  0  0  0  0  0
    8.9633   -1.7001   22.0679 H   0  0  0  0  0  0  0  0  0  0  0  0
    6.9192   -2.4245   21.2727 H   0  0  0  0  0  0  0  0  0  0  0  0
    5.9884   -1.5844   22.5148 H   0  0  0  0  0  0  0  0  0  0  0  0
    9.8744    0.6826   22.5285 C   0  0  0  0  0  0  0  0  0  0  0  0
   10.8185   -0.1490   21.9110 C   0  0  0  0  0  0  0  0  0  0  0  0
   12.1554    0.1958   21.9381 C   0  0  0  0  0  0  0  0  0  0  0  0
   13.3255   -0.9507   21.3463 Cl  0  0  0  0  0  0  0  0  0  0  0  0
   12.5911    1.4122   22.4552 C   0  0  0  0  0  0  0  0  0  0  0  0
   11.6459    2.2924   22.9521 C   0  0  0  0  0  0  0  0  0  0  0  0
   10.3017    1.9306   22.9999 C   0  0  0  0  0  0  0  0  0  0  0  0
    9.3228    2.9283   23.5343 C   0  0  0  0  0  0  0  0  0  0  0  0
    9.6206    4.1135   23.6772 O   0  0  0  0  0  0  0  0  0  0  0  0
   11.9154    3.2779   23.3090 H   0  0  0  0  0  0  0  0  0  0  0  0
   13.6501    1.6478   22.4403 H   0  0  0  0  0  0  0  0  0  0  0  0
   10.5332   -1.0463   21.3706 H   0  0  0  0  0  0  0  0  0  0  0  0
    6.7017    0.9083   23.8534 H   0  0  0  0  0  0  0  0  0  0  0  0
    8.2036    0.6100   24.7590 H   0  0  0  0  0  0  0  0  0  0  0  0
    7.4798    4.0298   25.0970 H   0  0  0  0  0  0  0  0  0  0  0  0
    6.2180    2.8776   24.6378 H   0  0  0  0  0  0  0  0  0  0  0  0
    8.2118    5.4939   23.5005 H   0  0  0  0  0  0  0  0  0  0  0  0
    7.4838    5.8811   21.0376 H   0  0  0  0  0  0  0  0  0  0  0  0
    7.7121    7.2980   22.1087 H   0  0  0  0  0  0  0  0  0  0  0  0
    6.0793    6.6564   21.8010 H   0  0  0  0  0  0  0  0  0  0  0  0
  1  2  1  0
  2  3  1  0
  3  4  2  0
  3  5  1  0
  5  6  1  0
  6  7  1  0
  8  7  1  1
  8  9  1  0
  9 10  2  0
  9 11  1  0
 11 12  1  0
 12 13  2  0
 13 14  1  0
 14 15  2  0
 15 16  1  0
 16 17  2  0
 17 18  1  0
 18 19  2  0
 19 20  1  0
 20 21  2  0
 20 22  1  0
 19 23  1  0
 18 24  1  0
 17 25  1  0
 15 26  1  0
 13 27  1  0
 11 28  1  0
 28 29  1  0
 29 30  1  0
 30 31  1  0
 31 32  1  0
 32 33  1  0
 33 34  2  0
 34 35  1  0
 35 36  1  0
 36 37  1  0
 36 38  1  0
 36 39  1  0
 35 40  1  0
 40 41  1  0
 33 42  1  0
 31 43  1  0
 30 44  1  0
 30 45  1  0
 29 46  1  6
 28 47  1  0
 28 48  1  0
  8 49  1  0
 49 50  2  0
 50 51  1  0
 51 52  1  0
 51 53  2  0
 53 54  1  0
 54 55  2  0
 55 56  1  0
 56 57  2  0
 54 58  1  0
 53 59  1  0
 50 60  1  0
  7 61  1  0
  7 62  1  0
  5 63  1  0
  5 64  1  0
  2 65  1  0
  1 66  1  0
  1 67  1  0
  1 68  1  0
 56  6  1  0
 29  8  1  0
 40 32  2  0
 55 49  1  0
 21 12  1  0
 21 16  1  0
M  END
>  <cnnaffinities>  (1) 
[6.98135, 6.10718, 6.76339]

>  <score>  (1) 
6.98135

>  <index>  (1) 
25

>  <Smiles>  (1) 
C(N(C(=O)C(N1C([C@@]2(C(=O)N(c3c(nc(c4c(c(c(c(c34)[H])[H])[H])[H])[H])[H])C([C@@]2(C(N(c2c(nn(C([H])([H])[H])c2[H])[H])[H])([H])[H])[H])([H])[H])c2c(c(Cl)c(c(c2C1=O)[H])[H])[H])([H])[H])([H])[H])[H])([H])([H])[H]

>  <h>  (1) 
<NA>

>  <Training>  (1) 
True

>  <Success>  (1) 
True

>  <enamine_searched>  (1) 
False

>  <enamine_id>  (1) 
nan

$$$$
