
     RDKit          3D

 56 60  0  0  0  0  0  0  0  0999 V2000
    5.9745    5.0316   20.8417 C   0  0  0  0  0  0  0  0  0  0  0  0
    7.0687    4.6748   21.7377 N   0  0  0  0  0  0  0  0  0  0  0  0
    6.7566    4.0253   22.8900 C   0  0  0  0  0  0  0  0  0  0  0  0
    5.6153    3.6865   23.1747 O   0  0  0  0  0  0  0  0  0  0  0  0
    7.9134    3.7520   23.8486 C   0  0  0  0  0  0  0  0  0  0  0  0
    8.6992    2.6210   23.4098 N   0  0  0  0  0  0  0  0  0  0  0  0
    8.1633    1.2902   23.6297 C   0  0  0  0  0  0  0  0  0  0  0  0
    8.5644    0.3189   22.4984 C   0  0  2  0  0  0  0  0  0  0  0  0
    7.7925    0.6890   21.2169 C   0  0  0  0  0  0  0  0  0  0  0  0
    7.9291    1.6856   20.5383 O   0  0  0  0  0  0  0  0  0  0  0  0
    6.8689   -0.2988   20.9656 N   0  0  0  0  0  0  0  0  0  0  0  0
    5.9004   -0.1474   19.9464 C   0  0  0  0  0  0  0  0  0  0  0  0
    6.0847   -0.7852   18.7490 C   0  0  0  0  0  0  0  0  0  0  0  0
    5.2614   -0.6547   17.6828 N   0  0  0  0  0  0  0  0  0  0  0  0
    4.2015    0.1047   17.8315 C   0  0  0  0  0  0  0  0  0  0  0  0
    3.8635    0.7794   19.0408 C   0  0  0  0  0  0  0  0  0  0  0  0
    2.6828    1.5591   19.1690 C   0  0  0  0  0  0  0  0  0  0  0  0
    2.3637    2.1558   20.3577 C   0  0  0  0  0  0  0  0  0  0  0  0
    3.2350    2.0436   21.4655 C   0  0  0  0  0  0  0  0  0  0  0  0
    4.3968    1.3177   21.3617 C   0  0  0  0  0  0  0  0  0  0  0  0
    4.7353    0.6545   20.1453 C   0  0  0  0  0  0  0  0  0  0  0  0
    5.0612    1.2534   22.2189 H   0  0  0  0  0  0  0  0  0  0  0  0
    3.0024    2.5561   22.3952 H   0  0  0  0  0  0  0  0  0  0  0  0
    1.4415    2.7236   20.4549 H   0  0  0  0  0  0  0  0  0  0  0  0
    2.0493    1.6820   18.2977 H   0  0  0  0  0  0  0  0  0  0  0  0
    3.5297    0.1950   16.9771 H   0  0  0  0  0  0  0  0  0  0  0  0
    6.9482   -1.4342   18.6089 H   0  0  0  0  0  0  0  0  0  0  0  0
    6.7951   -1.3278   21.9771 C   0  0  0  0  0  0  0  0  0  0  0  0
    8.0894   -1.1392   22.7820 C   0  0  2  0  0  0  0  0  0  0  0  0
    7.9301   -1.5466   24.2461 C   0  0  0  0  0  0  0  0  0  0  0  0
    7.6504   -2.6035   24.3214 H   0  0  0  0  0  0  0  0  0  0  0  0
    7.1396   -0.9605   24.7302 H   0  0  0  0  0  0  0  0  0  0  0  0
    8.8546   -1.4047   24.8178 H   0  0  0  0  0  0  0  0  0  0  0  0
    8.8391   -1.7965   22.3426 H   0  0  0  0  0  0  0  0  0  0  0  0
    5.9087   -1.2068   22.6201 H   0  0  0  0  0  0  0  0  0  0  0  0
    6.7346   -2.3165   21.5098 H   0  0  0  0  0  0  0  0  0  0  0  0
   10.0618    0.4448   22.2834 C   0  0  0  0  0  0  0  0  0  0  0  0
   10.7823   -0.5800   21.6621 C   0  0  0  0  0  0  0  0  0  0  0  0
   12.1506   -0.4640   21.5379 C   0  0  0  0  0  0  0  0  0  0  0  0
   12.8344   -1.4996   21.0247 F   0  0  0  0  0  0  0  0  0  0  0  0
   12.8432    0.6995   21.8559 C   0  0  0  0  0  0  0  0  0  0  0  0
   12.1189    1.7499   22.3823 C   0  0  0  0  0  0  0  0  0  0  0  0
   10.7491    1.6194   22.6106 C   0  0  0  0  0  0  0  0  0  0  0  0
   10.0230    2.8177   23.1318 C   0  0  0  0  0  0  0  0  0  0  0  0
   10.5761    3.8980   23.2662 O   0  0  0  0  0  0  0  0  0  0  0  0
   12.5715    2.7089   22.6113 H   0  0  0  0  0  0  0  0  0  0  0  0
   13.9073    0.7643   21.6532 H   0  0  0  0  0  0  0  0  0  0  0  0
   10.2949   -1.4549   21.2428 H   0  0  0  0  0  0  0  0  0  0  0  0
    7.0736    1.3669   23.6948 H   0  0  0  0  0  0  0  0  0  0  0  0
    8.5435    0.8878   24.5778 H   0  0  0  0  0  0  0  0  0  0  0  0
    7.4751    3.5405   24.8268 H   0  0  0  0  0  0  0  0  0  0  0  0
    8.6066    4.5955   23.9251 H   0  0  0  0  0  0  0  0  0  0  0  0
    8.0028    4.5869   21.3518 H   0  0  0  0  0  0  0  0  0  0  0  0
    5.3932    4.1151   20.6414 H   0  0  0  0  0  0  0  0  0  0  0  0
    5.3077    5.7583   21.3259 H   0  0  0  0  0  0  0  0  0  0  0  0
    6.3329    5.4918   19.9107 H   0  0  0  0  0  0  0  0  0  0  0  0
  1  2  1  0
  2  3  1  0
  3  4  2  0
  3  5  1  0
  5  6  1  0
  6  7  1  0
  8  7  1  1
  8  9  1  0
  9 10  2  0
  9 11  1  0
 11 12  1  0
 12 13  2  0
 13 14  1  0
 14 15  2  0
 15 16  1  0
 16 17  2  0
 17 18  1  0
 18 19  2  0
 19 20  1  0
 20 21  2  0
 20 22  1  0
 19 23  1  0
 18 24  1  0
 17 25  1  0
 15 26  1  0
 13 27  1  0
 11 28  1  0
 28 29  1  0
 29 30  1  0
 30 31  1  0
 30 32  1  0
 30 33  1  0
 29 34  1  6
 28 35  1  0
 28 36  1  0
  8 37  1  0
 37 38  2  0
 38 39  1  0
 39 40  1  0
 39 41  2  0
 41 42  1  0
 42 43  2  0
 43 44  1  0
 44 45  2  0
 42 46  1  0
 41 47  1  0
 38 48  1  0
  7 49  1  0
  7 50  1  0
  5 51  1  0
  5 52  1  0
  2 53  1  0
  1 54  1  0
  1 55  1  0
  1 56  1  0
 44  6  1  0
 29  8  1  0
 43 37  1  0
 21 12  1  0
 21 16  1  0
M  END
>  <cnnaffinities>  (1) 
[6.00977, 6.07412, 5.84172, 5.86359]

>  <score>  (1) 
6.00977

>  <index>  (1) 
47

>  <Smiles>  (1) 
C(N(C(=O)C(N1C([C@@]2(C(=O)N(c3c(nc(c4c(c(c(c(c34)[H])[H])[H])[H])[H])[H])C([C@@]2(C([H])([H])[H])[H])([H])[H])c2c(c(F)c(c(c2C1=O)[H])[H])[H])([H])[H])([H])[H])[H])([H])([H])[H]

>  <h>  (1) 
<NA>

>  <Training>  (1) 
True

>  <Success>  (1) 
True

>  <enamine_searched>  (1) 
False

>  <enamine_id>  (1) 
nan

$$$$
