
     RDKit          3D

 58 63  0  0  0  0  0  0  0  0999 V2000
    8.2112   -1.9236   23.9687 C   0  0  0  0  0  0  0  0  0  0  0  0
    8.2494   -1.2187   22.6183 C   0  0  1  0  0  0  0  0  0  0  0  0
    6.9944   -1.4922   21.7818 C   0  0  0  0  0  0  0  0  0  0  0  0
    6.8661   -0.3018   20.9726 N   0  0  0  0  0  0  0  0  0  0  0  0
    5.9007   -0.1501   19.9610 C   0  0  0  0  0  0  0  0  0  0  0  0
    6.0863   -0.7827   18.7607 C   0  0  0  0  0  0  0  0  0  0  0  0
    5.2734   -0.6406   17.6896 N   0  0  0  0  0  0  0  0  0  0  0  0
    4.2206    0.1267   17.8506 C   0  0  0  0  0  0  0  0  0  0  0  0
    3.8828    0.7887   19.0643 C   0  0  0  0  0  0  0  0  0  0  0  0
    2.7121    1.5800   19.1815 C   0  0  0  0  0  0  0  0  0  0  0  0
    2.3745    2.1536   20.3727 C   0  0  0  0  0  0  0  0  0  0  0  0
    3.2105    1.9974   21.5023 C   0  0  0  0  0  0  0  0  0  0  0  0
    4.3687    1.2673   21.4077 C   0  0  0  0  0  0  0  0  0  0  0  0
    4.7356    0.6452   20.1774 C   0  0  0  0  0  0  0  0  0  0  0  0
    4.9989    1.1667   22.2874 H   0  0  0  0  0  0  0  0  0  0  0  0
    2.9432    2.4602   22.4461 H   0  0  0  0  0  0  0  0  0  0  0  0
    1.4526    2.7202   20.4613 H   0  0  0  0  0  0  0  0  0  0  0  0
    2.1004    1.7155   18.2961 H   0  0  0  0  0  0  0  0  0  0  0  0
    3.5517    0.2284   16.9981 H   0  0  0  0  0  0  0  0  0  0  0  0
    6.9657   -1.4114   18.6299 H   0  0  0  0  0  0  0  0  0  0  0  0
    7.6167    0.7681   21.3964 C   0  0  0  0  0  0  0  0  0  0  0  0
    7.6174    1.8517   20.8481 O   0  0  0  0  0  0  0  0  0  0  0  0
    8.3920    0.3318   22.6589 C   0  0  1  0  0  0  0  0  0  0  0  0
    7.7203    0.9270   23.9284 C   0  0  0  0  0  0  0  0  0  0  0  0
    7.8556    2.3778   24.0061 N   0  0  0  0  0  0  0  0  0  0  0  0
    6.6401    3.1892   23.9960 C   0  0  0  0  0  0  0  0  0  0  0  0
    5.7068    2.8351   25.0997 C   0  0  0  0  0  0  0  0  0  0  0  0
    4.4986    2.3359   24.9839 N   0  0  0  0  0  0  0  0  0  0  0  0
    3.9972    2.1670   26.2491 N   0  0  0  0  0  0  0  0  0  0  0  0
    4.9160    2.5716   27.0781 C   0  0  0  0  0  0  0  0  0  0  0  0
    6.0221    3.0138   26.4149 N   0  0  0  0  0  0  0  0  0  0  0  0
    7.2878    3.4727   26.9584 C   0  0  0  0  0  0  0  0  0  0  0  0
    7.1361    3.7326   28.0127 H   0  0  0  0  0  0  0  0  0  0  0  0
    7.6389    4.3710   26.4292 H   0  0  0  0  0  0  0  0  0  0  0  0
    8.0355    2.6732   26.8755 H   0  0  0  0  0  0  0  0  0  0  0  0
    4.8305    2.5857   28.1555 H   0  0  0  0  0  0  0  0  0  0  0  0
    6.1617    3.0730   23.0171 H   0  0  0  0  0  0  0  0  0  0  0  0
    6.9367    4.2406   24.0797 H   0  0  0  0  0  0  0  0  0  0  0  0
    9.0211    3.0046   23.6481 C   0  0  0  0  0  0  0  0  0  0  0  0
    9.1547    4.2210   23.7241 O   0  0  0  0  0  0  0  0  0  0  0  0
   10.1165    2.1131   23.1383 C   0  0  0  0  0  0  0  0  0  0  0  0
   11.4271    2.5875   23.1312 C   0  0  0  0  0  0  0  0  0  0  0  0
   12.4572    1.8317   22.6004 C   0  0  0  0  0  0  0  0  0  0  0  0
   12.1264    0.6098   22.0251 C   0  0  0  0  0  0  0  0  0  0  0  0
   13.0869   -0.1444   21.4623 F   0  0  0  0  0  0  0  0  0  0  0  0
   10.8373    0.1258   21.9965 C   0  0  0  0  0  0  0  0  0  0  0  0
    9.8127    0.8483   22.6135 C   0  0  0  0  0  0  0  0  0  0  0  0
   10.6769   -0.8101   21.4737 H   0  0  0  0  0  0  0  0  0  0  0  0
   13.4832    2.1836   22.6016 H   0  0  0  0  0  0  0  0  0  0  0  0
   11.6069    3.5742   23.5388 H   0  0  0  0  0  0  0  0  0  0  0  0
    6.6546    0.6766   23.9438 H   0  0  0  0  0  0  0  0  0  0  0  0
    8.1912    0.4670   24.8082 H   0  0  0  0  0  0  0  0  0  0  0  0
    6.1147   -1.6460   22.4258 H   0  0  0  0  0  0  0  0  0  0  0  0
    7.1073   -2.3821   21.1544 H   0  0  0  0  0  0  0  0  0  0  0  0
    9.0975   -1.6061   22.0491 H   0  0  0  0  0  0  0  0  0  0  0  0
    9.0960   -1.6887   24.5719 H   0  0  0  0  0  0  0  0  0  0  0  0
    7.3191   -1.6161   24.5299 H   0  0  0  0  0  0  0  0  0  0  0  0
    8.1623   -3.0069   23.8238 H   0  0  0  0  0  0  0  0  0  0  0  0
  1  2  1  0
  2  3  1  0
  3  4  1  0
  4  5  1  0
  5  6  2  0
  6  7  1  0
  7  8  2  0
  8  9  1  0
  9 10  2  0
 10 11  1  0
 11 12  2  0
 12 13  1  0
 13 14  2  0
 13 15  1  0
 12 16  1  0
 11 17  1  0
 10 18  1  0
  8 19  1  0
  6 20  1  0
  4 21  1  0
 21 22  2  0
 21 23  1  0
 23 24  1  1
 24 25  1  0
 25 26  1  0
 26 27  1  0
 27 28  2  0
 28 29  1  0
 29 30  2  0
 30 31  1  0
 31 32  1  0
 32 33  1  0
 32 34  1  0
 32 35  1  0
 30 36  1  0
 26 37  1  0
 26 38  1  0
 25 39  1  0
 39 40  2  0
 39 41  1  0
 41 42  2  0
 42 43  1  0
 43 44  2  0
 44 45  1  0
 44 46  1  0
 46 47  2  0
 46 48  1  0
 43 49  1  0
 42 50  1  0
 24 51  1  0
 24 52  1  0
  3 53  1  0
  3 54  1  0
  2 55  1  6
  1 56  1  0
  1 57  1  0
  1 58  1  0
 23  2  1  0
 31 27  1  0
 47 41  1  0
 14  5  1  0
 47 23  1  0
 14  9  1  0
M  END
>  <cnnaffinities>  (1) 
[6.0697, 6.11515, 6.14091, 6.15629]

>  <score>  (1) 
6.0697

>  <index>  (1) 
17

>  <Smiles>  (1) 
C([C@]1(C(N(c2c(nc(c3c(c(c(c(c23)[H])[H])[H])[H])[H])[H])C(=O)[C@]21C(N(C(c1nnc(n1C([H])([H])[H])[H])([H])[H])C(=O)c1c(c(c(F)c(c21)[H])[H])[H])([H])[H])([H])[H])[H])([H])([H])[H]

>  <h>  (1) 
<NA>

>  <Training>  (1) 
True

>  <Success>  (1) 
True

>  <enamine_searched>  (1) 
False

>  <enamine_id>  (1) 
nan

$$$$
