
     RDKit          3D

 58 63  0  0  0  0  0  0  0  0999 V2000
    7.0554   -1.3227   24.1882 C   0  0  0  0  0  0  0  0  0  0  0  0
    7.9183   -1.1605   22.9243 C   0  0  1  0  0  0  0  0  0  0  0  0
    7.1346   -1.5531   21.6523 C   0  0  0  0  0  0  0  0  0  0  0  0
    6.8086   -0.2825   21.0460 N   0  0  0  0  0  0  0  0  0  0  0  0
    5.8917   -0.1249   19.9831 C   0  0  0  0  0  0  0  0  0  0  0  0
    6.0932   -0.7573   18.7834 C   0  0  0  0  0  0  0  0  0  0  0  0
    5.2952   -0.6129   17.7022 N   0  0  0  0  0  0  0  0  0  0  0  0
    4.2404    0.1588   17.8341 C   0  0  0  0  0  0  0  0  0  0  0  0
    3.8876    0.8337   19.0367 C   0  0  0  0  0  0  0  0  0  0  0  0
    2.7081    1.6171   19.1472 C   0  0  0  0  0  0  0  0  0  0  0  0
    2.3554    2.1817   20.3435 C   0  0  0  0  0  0  0  0  0  0  0  0
    3.1906    2.0306   21.4741 C   0  0  0  0  0  0  0  0  0  0  0  0
    4.3610    1.3177   21.3820 C   0  0  0  0  0  0  0  0  0  0  0  0
    4.7336    0.6890   20.1596 C   0  0  0  0  0  0  0  0  0  0  0  0
    5.0221    1.2450   22.2410 H   0  0  0  0  0  0  0  0  0  0  0  0
    2.9241    2.5177   22.4096 H   0  0  0  0  0  0  0  0  0  0  0  0
    1.4353    2.7549   20.4276 H   0  0  0  0  0  0  0  0  0  0  0  0
    2.1025    1.7627   18.2587 H   0  0  0  0  0  0  0  0  0  0  0  0
    3.5889    0.2613   16.9660 H   0  0  0  0  0  0  0  0  0  0  0  0
    6.9601   -1.4007   18.6438 H   0  0  0  0  0  0  0  0  0  0  0  0
    7.6876    0.7221   21.3827 C   0  0  0  0  0  0  0  0  0  0  0  0
    7.8336    1.7434   20.7480 O   0  0  0  0  0  0  0  0  0  0  0  0
    8.4744    0.2800   22.6383 C   0  0  1  0  0  0  0  0  0  0  0  0
    8.2228    1.2439   23.8364 C   0  0  0  0  0  0  0  0  0  0  0  0
    8.8435    2.5497   23.6663 N   0  0  0  0  0  0  0  0  0  0  0  0
    8.1248    3.7636   24.0587 C   0  0  0  0  0  0  0  0  0  0  0  0
    7.4286    4.4160   22.9009 C   0  0  0  0  0  0  0  0  0  0  0  0
    7.8598    5.4638   22.0864 C   0  0  0  0  0  0  0  0  0  0  0  0
    6.9433    5.6822   21.1508 N   0  0  0  0  0  0  0  0  0  0  0  0
    6.0097    4.7955   21.4094 N   0  0  0  0  0  0  0  0  0  0  0  0
    4.8262    4.7060   20.5844 C   0  0  0  0  0  0  0  0  0  0  0  0
    4.9270    5.5015   19.8600 H   0  0  0  0  0  0  0  0  0  0  0  0
    4.7704    3.7416   20.0767 H   0  0  0  0  0  0  0  0  0  0  0  0
    3.9245    4.8478   21.1799 H   0  0  0  0  0  0  0  0  0  0  0  0
    6.2374    4.0050   22.4463 N   0  0  0  0  0  0  0  0  0  0  0  0
    8.7677    6.0423   22.1267 H   0  0  0  0  0  0  0  0  0  0  0  0
    8.8540    4.4499   24.5010 H   0  0  0  0  0  0  0  0  0  0  0  0
    7.3807    3.5084   24.8180 H   0  0  0  0  0  0  0  0  0  0  0  0
   10.0920    2.7106   23.1314 C   0  0  0  0  0  0  0  0  0  0  0  0
   10.6795    3.7873   23.1408 O   0  0  0  0  0  0  0  0  0  0  0  0
   10.7141    1.4764   22.5469 C   0  0  0  0  0  0  0  0  0  0  0  0
   12.0877    1.4955   22.2949 C   0  0  0  0  0  0  0  0  0  0  0  0
   12.7425    0.3645   21.8432 C   0  0  0  0  0  0  0  0  0  0  0  0
   11.9841   -0.7663   21.5703 C   0  0  0  0  0  0  0  0  0  0  0  0
   12.6034   -1.8798   21.1489 F   0  0  0  0  0  0  0  0  0  0  0  0
   10.6153   -0.7939   21.7512 C   0  0  0  0  0  0  0  0  0  0  0  0
    9.9632    0.3142   22.3128 C   0  0  0  0  0  0  0  0  0  0  0  0
   10.0904   -1.6939   21.4591 H   0  0  0  0  0  0  0  0  0  0  0  0
   13.8149    0.3466   21.6867 H   0  0  0  0  0  0  0  0  0  0  0  0
   12.6476    2.4045   22.5017 H   0  0  0  0  0  0  0  0  0  0  0  0
    7.1452    1.4107   23.9416 H   0  0  0  0  0  0  0  0  0  0  0  0
    8.5951    0.7528   24.7514 H   0  0  0  0  0  0  0  0  0  0  0  0
    6.2156   -2.1088   21.8675 H   0  0  0  0  0  0  0  0  0  0  0  0
    7.7513   -2.1715   20.9841 H   0  0  0  0  0  0  0  0  0  0  0  0
    8.7607   -1.8437   23.0692 H   0  0  0  0  0  0  0  0  0  0  0  0
    7.6227   -1.0715   25.0894 H   0  0  0  0  0  0  0  0  0  0  0  0
    6.7396   -2.3667   24.2947 H   0  0  0  0  0  0  0  0  0  0  0  0
    6.1503   -0.7038   24.1718 H   0  0  0  0  0  0  0  0  0  0  0  0
  1  2  1  0
  2  3  1  0
  3  4  1  0
  4  5  1  0
  5  6  2  0
  6  7  1  0
  7  8  2  0
  8  9  1  0
  9 10  2  0
 10 11  1  0
 11 12  2  0
 12 13  1  0
 13 14  2  0
 13 15  1  0
 12 16  1  0
 11 17  1  0
 10 18  1  0
  8 19  1  0
  6 20  1  0
  4 21  1  0
 21 22  2  0
 21 23  1  0
 23 24  1  1
 24 25  1  0
 25 26  1  0
 26 27  1  0
 27 28  1  0
 28 29  2  0
 29 30  1  0
 30 31  1  0
 31 32  1  0
 31 33  1  0
 31 34  1  0
 30 35  1  0
 28 36  1  0
 26 37  1  0
 26 38  1  0
 25 39  1  0
 39 40  2  0
 39 41  1  0
 41 42  2  0
 42 43  1  0
 43 44  2  0
 44 45  1  0
 44 46  1  0
 46 47  2  0
 46 48  1  0
 43 49  1  0
 42 50  1  0
 24 51  1  0
 24 52  1  0
  3 53  1  0
  3 54  1  0
  2 55  1  1
  1 56  1  0
  1 57  1  0
  1 58  1  0
 23  2  1  0
 35 27  2  0
 47 41  1  0
 14  5  1  0
 47 23  1  0
 14  9  1  0
M  END
>  <cnnaffinities>  (1) 
[6.13842, 5.99573, 6.09991, 6.05709]

>  <score>  (1) 
6.13842

>  <index>  (1) 
34

>  <Smiles>  (1) 
C([C@]1(C(N(c2c(nc(c3c(c(c(c(c23)[H])[H])[H])[H])[H])[H])C(=O)[C@]21C(N(C(c1c(nn(C([H])([H])[H])n1)[H])([H])[H])C(=O)c1c(c(c(F)c(c21)[H])[H])[H])([H])[H])([H])[H])[H])([H])([H])[H]

>  <h>  (1) 
<NA>

>  <Training>  (1) 
True

>  <Success>  (1) 
True

>  <enamine_searched>  (1) 
False

>  <enamine_id>  (1) 
nan

$$$$
