
     RDKit          3D

 47 50  0  0  0  0  0  0  0  0999 V2000
    5.9768   -0.5359   23.5567 O   0  0  0  0  0  0  0  0  0  0  0  0
    6.1325   -1.1486   22.5064 C   0  0  0  0  0  0  0  0  0  0  0  0
    6.7402   -0.4812   21.2472 C   0  0  0  0  0  0  0  0  0  0  0  0
    5.8192   -0.2568   20.0626 C   0  0  0  0  0  0  0  0  0  0  0  0
    6.1180   -0.7505   18.8177 C   0  0  0  0  0  0  0  0  0  0  0  0
    5.3767   -0.5574   17.6963 N   0  0  0  0  0  0  0  0  0  0  0  0
    4.2890    0.1663   17.8184 C   0  0  0  0  0  0  0  0  0  0  0  0
    3.8705    0.7755   19.0335 C   0  0  0  0  0  0  0  0  0  0  0  0
    2.7200    1.6085   19.1250 C   0  0  0  0  0  0  0  0  0  0  0  0
    2.3987    2.2205   20.3074 C   0  0  0  0  0  0  0  0  0  0  0  0
    3.2170    2.0521   21.4455 C   0  0  0  0  0  0  0  0  0  0  0  0
    4.3334    1.2579   21.3840 C   0  0  0  0  0  0  0  0  0  0  0  0
    4.6696    0.5783   20.1829 C   0  0  0  0  0  0  0  0  0  0  0  0
    4.9741    1.1463   22.2534 H   0  0  0  0  0  0  0  0  0  0  0  0
    2.9669    2.5582   22.3740 H   0  0  0  0  0  0  0  0  0  0  0  0
    1.5210    2.8575   20.3770 H   0  0  0  0  0  0  0  0  0  0  0  0
    2.1129    1.7721   18.2394 H   0  0  0  0  0  0  0  0  0  0  0  0
    3.6919    0.3132   16.9178 H   0  0  0  0  0  0  0  0  0  0  0  0
    7.0271   -1.3332   18.6629 H   0  0  0  0  0  0  0  0  0  0  0  0
    7.5947   -1.0742   20.8994 H   0  0  0  0  0  0  0  0  0  0  0  0
    7.1623    0.4753   21.5767 H   0  0  0  0  0  0  0  0  0  0  0  0
    5.7912   -2.4668   22.3946 N   0  0  0  0  0  0  0  0  0  0  0  0
    6.2654   -3.3019   21.3043 C   0  0  0  0  0  0  0  0  0  0  0  0
    6.0974   -4.7437   21.8023 C   0  0  2  0  0  0  0  0  0  0  0  0
    5.7823   -5.7025   20.6686 C   0  0  0  0  0  0  0  0  0  0  0  0
    4.9158   -5.1275   19.7470 F   0  0  0  0  0  0  0  0  0  0  0  0
    6.6975   -5.9330   20.1219 H   0  0  0  0  0  0  0  0  0  0  0  0
    5.3534   -6.6502   21.0028 H   0  0  0  0  0  0  0  0  0  0  0  0
    5.1889   -4.6875   23.0642 C   0  0  0  0  0  0  0  0  0  0  0  0
    3.6811   -4.9169   22.8645 C   0  0  0  0  0  0  0  0  0  0  0  0
    3.4629   -6.4382   22.8461 C   0  0  0  0  0  0  0  0  0  0  0  0
    4.6172   -7.0119   23.6975 C   0  0  0  0  0  0  0  0  0  0  0  0
    5.5204   -5.8155   24.0589 C   0  0  0  0  0  0  0  0  0  0  0  0
    6.5897   -6.0569   24.0498 H   0  0  0  0  0  0  0  0  0  0  0  0
    5.2735   -5.4561   25.0638 H   0  0  0  0  0  0  0  0  0  0  0  0
    4.2527   -7.4995   24.6046 H   0  0  0  0  0  0  0  0  0  0  0  0
    5.1505   -7.7769   23.1298 H   0  0  0  0  0  0  0  0  0  0  0  0
    3.5294   -6.7977   21.8163 H   0  0  0  0  0  0  0  0  0  0  0  0
    2.4718   -6.7301   23.2188 H   0  0  0  0  0  0  0  0  0  0  0  0
    3.1880   -4.5005   23.7528 H   0  0  0  0  0  0  0  0  0  0  0  0
    3.2811   -4.4114   21.9803 H   0  0  0  0  0  0  0  0  0  0  0  0
    5.5077   -3.2717   23.5890 C   0  0  0  0  0  0  0  0  0  0  0  0
    6.3966   -3.3019   24.2322 H   0  0  0  0  0  0  0  0  0  0  0  0
    4.7023   -2.8137   24.1707 H   0  0  0  0  0  0  0  0  0  0  0  0
    7.0736   -5.0571   22.2005 H   0  0  0  0  0  0  0  0  0  0  0  0
    5.7029   -3.1087   20.3853 H   0  0  0  0  0  0  0  0  0  0  0  0
    7.3297   -3.0953   21.1272 H   0  0  0  0  0  0  0  0  0  0  0  0
  1  2  2  0
  2  3  1  0
  3  4  1  0
  4  5  2  0
  5  6  1  0
  6  7  2  0
  7  8  1  0
  8  9  2  0
  9 10  1  0
 10 11  2  0
 11 12  1  0
 12 13  2  0
 12 14  1  0
 11 15  1  0
 10 16  1  0
  9 17  1  0
  7 18  1  0
  5 19  1  0
  3 20  1  0
  3 21  1  0
  2 22  1  0
 22 23  1  0
 23 24  1  0
 24 25  1  0
 25 26  1  0
 25 27  1  0
 25 28  1  0
 24 29  1  0
 29 30  1  0
 30 31  1  0
 31 32  1  0
 32 33  1  0
 33 34  1  0
 33 35  1  0
 32 36  1  0
 32 37  1  0
 31 38  1  0
 31 39  1  0
 30 40  1  0
 30 41  1  0
 29 42  1  0
 42 43  1  0
 42 44  1  0
 24 45  1  1
 23 46  1  0
 23 47  1  0
 13  4  1  0
 42 22  1  0
 13  8  1  0
 33 29  1  0
M  END
>  <cnnaffinities>  (1) 
[5.39305, 5.33618, 5.52685, 5.52686, 5.34807, 5.50331, 5.39468, 5.49542, 5.48937, 5.47735, 5.28456, 5.44591, 5.53239, 5.37953]

>  <score>  (1) 
5.39305

>  <index>  (1) 
12

>  <Smiles>  (1) 
O=C(C(c1c(nc(c2c(c(c(c(c12)[H])[H])[H])[H])[H])[H])([H])[H])N1C([C@](C(F)([H])[H])(C2(C(C(C(C2([H])[H])([H])[H])([H])[H])([H])[H])C1([H])[H])[H])([H])[H]

>  <h>  (1) 
<NA>

>  <Training>  (1) 
True

>  <Success>  (1) 
True

>  <enamine_searched>  (1) 
False

>  <enamine_id>  (1) 
nan

$$$$
