
     RDKit          3D

 37 39  0  0  0  0  0  0  0  0999 V2000
    5.3320   -1.8043   22.1518 O   0  0  0  0  0  0  0  0  0  0  0  0
    6.5018   -1.4924   22.0337 C   0  0  0  0  0  0  0  0  0  0  0  0
    6.9040   -0.3619   21.0595 C   0  0  0  0  0  0  0  0  0  0  0  0
    5.8720   -0.1735   19.9740 C   0  0  0  0  0  0  0  0  0  0  0  0
    6.0345   -0.8029   18.7694 C   0  0  0  0  0  0  0  0  0  0  0  0
    5.2190   -0.6764   17.6910 N   0  0  0  0  0  0  0  0  0  0  0  0
    4.1615    0.0859   17.8306 C   0  0  0  0  0  0  0  0  0  0  0  0
    3.8204    0.7440   19.0423 C   0  0  0  0  0  0  0  0  0  0  0  0
    2.6340    1.5087   19.1713 C   0  0  0  0  0  0  0  0  0  0  0  0
    2.3168    2.1248   20.3505 C   0  0  0  0  0  0  0  0  0  0  0  0
    3.1920    2.0136   21.4524 C   0  0  0  0  0  0  0  0  0  0  0  0
    4.3502    1.2801   21.3538 C   0  0  0  0  0  0  0  0  0  0  0  0
    4.6963    0.6167   20.1479 C   0  0  0  0  0  0  0  0  0  0  0  0
    5.0036    1.1911   22.2135 H   0  0  0  0  0  0  0  0  0  0  0  0
    2.9435    2.5200   22.3800 H   0  0  0  0  0  0  0  0  0  0  0  0
    1.4033    2.7098   20.4372 H   0  0  0  0  0  0  0  0  0  0  0  0
    1.9862    1.6132   18.3107 H   0  0  0  0  0  0  0  0  0  0  0  0
    3.5084    0.1975   16.9612 H   0  0  0  0  0  0  0  0  0  0  0  0
    6.8702   -1.4836   18.6166 H   0  0  0  0  0  0  0  0  0  0  0  0
    7.8711   -0.5983   20.5892 H   0  0  0  0  0  0  0  0  0  0  0  0
    7.0402    0.5775   21.6130 H   0  0  0  0  0  0  0  0  0  0  0  0
    7.5014   -2.1496   22.7247 N   0  0  0  0  0  0  0  0  0  0  0  0
    7.3077   -3.5620   23.0392 C   0  0  0  0  0  0  0  0  0  0  0  0
    7.8504   -3.9180   24.4149 C   0  0  0  0  0  0  0  0  0  0  0  0
    9.2991   -3.4744   24.5668 C   0  0  0  0  0  0  0  0  0  0  0  0
    9.4082   -1.9852   24.2721 C   0  0  0  0  0  0  0  0  0  0  0  0
    8.8519   -1.6397   22.8935 C   0  0  0  0  0  0  0  0  0  0  0  0
    9.5280   -2.0441   22.1253 H   0  0  0  0  0  0  0  0  0  0  0  0
    8.8331   -0.5579   22.7686 H   0  0  0  0  0  0  0  0  0  0  0  0
    8.8647   -1.4193   25.0336 H   0  0  0  0  0  0  0  0  0  0  0  0
   10.4489   -1.6572   24.3328 H   0  0  0  0  0  0  0  0  0  0  0  0
    9.6686   -3.6995   25.5738 H   0  0  0  0  0  0  0  0  0  0  0  0
    9.9362   -4.0376   23.8728 H   0  0  0  0  0  0  0  0  0  0  0  0
    7.7602   -4.9962   24.5801 H   0  0  0  0  0  0  0  0  0  0  0  0
    7.2337   -3.4395   25.1806 H   0  0  0  0  0  0  0  0  0  0  0  0
    7.8077   -4.1892   22.2845 H   0  0  0  0  0  0  0  0  0  0  0  0
    6.2412   -3.7675   22.9709 H   0  0  0  0  0  0  0  0  0  0  0  0
  1  2  2  0
  2  3  1  0
  3  4  1  0
  4  5  2  0
  5  6  1  0
  6  7  2  0
  7  8  1  0
  8  9  2  0
  9 10  1  0
 10 11  2  0
 11 12  1  0
 12 13  2  0
 12 14  1  0
 11 15  1  0
 10 16  1  0
  9 17  1  0
  7 18  1  0
  5 19  1  0
  3 20  1  0
  3 21  1  0
  2 22  1  0
 22 23  1  0
 23 24  1  0
 24 25  1  0
 25 26  1  0
 26 27  1  0
 27 28  1  0
 27 29  1  0
 26 30  1  0
 26 31  1  0
 25 32  1  0
 25 33  1  0
 24 34  1  0
 24 35  1  0
 23 36  1  0
 23 37  1  0
 13  4  1  0
 27 22  1  0
 13  8  1  0
M  END
>  <cnnaffinities>  (1) 
[4.79977, 4.87201, 4.54511, 4.97761, 4.97761, 5.06581, 5.06578]

>  <score>  (1) 
4.79977

>  <index>  (1) 
7

>  <Smiles>  (1) 
O=C(C(c1c(nc(c2c(c(c(c(c12)[H])[H])[H])[H])[H])[H])([H])[H])N1C(C(C(C(C1([H])[H])([H])[H])([H])[H])([H])[H])([H])[H]

>  <h>  (1) 
<NA>

>  <Training>  (1) 
True

>  <Success>  (1) 
True

>  <enamine_searched>  (1) 
False

>  <enamine_id>  (1) 
nan

$$$$
