
     RDKit          3D

 64 68  0  0  0  0  0  0  0  0999 V2000
    3.7930    3.1662   26.9143 C   0  0  0  0  0  0  0  0  0  0  0  0
    3.2664    1.7305   26.7811 C   0  0  0  0  0  0  0  0  0  0  0  0
    4.1674    0.9513   25.8527 C   0  0  0  0  0  0  0  0  0  0  0  0
    3.9129    0.8505   24.6645 O   0  0  0  0  0  0  0  0  0  0  0  0
    5.3235    0.4385   26.4234 N   0  0  0  0  0  0  0  0  0  0  0  0
    5.3104   -0.0125   27.8222 C   0  0  0  0  0  0  0  0  0  0  0  0
    6.6588   -0.5819   28.2143 C   0  0  0  0  0  0  0  0  0  0  0  0
    7.1154   -1.5839   27.1570 C   0  0  0  0  0  0  0  0  0  0  0  0
    7.3515   -0.7966   25.9021 C   0  0  0  0  0  0  0  0  0  0  0  0
    8.4696   -0.9763   25.0982 C   0  0  0  0  0  0  0  0  0  0  0  0
    8.6558   -0.2118   23.9548 C   0  0  0  0  0  0  0  0  0  0  0  0
    7.7215    0.7764   23.6516 C   0  0  0  0  0  0  0  0  0  0  0  0
    7.8731    1.5216   22.4558 N   0  0  0  0  0  0  0  0  0  0  0  0
    8.3328    2.9041   22.5490 C   0  0  0  0  0  0  0  0  0  0  0  0
    7.1882    3.8743   22.7437 C   0  0  0  0  0  0  0  0  0  0  0  0
    6.2798    4.0375   21.7029 C   0  0  0  0  0  0  0  0  0  0  0  0
    5.1865    4.8832   21.8394 C   0  0  0  0  0  0  0  0  0  0  0  0
    4.9529    5.5431   23.0405 C   0  0  0  0  0  0  0  0  0  0  0  0
    5.8477    5.3489   24.0825 C   0  0  0  0  0  0  0  0  0  0  0  0
    5.5237    6.1008   25.6253 Cl  0  0  0  0  0  0  0  0  0  0  0  0
    6.9763    4.5482   23.9453 C   0  0  0  0  0  0  0  0  0  0  0  0
    7.6577    4.4400   24.7860 H   0  0  0  0  0  0  0  0  0  0  0  0
    4.0925    6.1941   23.1648 H   0  0  0  0  0  0  0  0  0  0  0  0
    4.5026    5.0156   21.0055 H   0  0  0  0  0  0  0  0  0  0  0  0
    6.4131    3.4556   20.7964 H   0  0  0  0  0  0  0  0  0  0  0  0
    8.8666    3.1234   21.6188 H   0  0  0  0  0  0  0  0  0  0  0  0
    9.0269    2.9630   23.3902 H   0  0  0  0  0  0  0  0  0  0  0  0
    7.6895    0.9444   21.2233 C   0  0  0  0  0  0  0  0  0  0  0  0
    8.1426    1.4448   20.2149 O   0  0  0  0  0  0  0  0  0  0  0  0
    6.8757   -0.3550   21.1254 C   0  0  0  0  0  0  0  0  0  0  0  0
    5.8657   -0.2097   20.0225 C   0  0  0  0  0  0  0  0  0  0  0  0
    6.0650   -0.7777   18.7911 C   0  0  0  0  0  0  0  0  0  0  0  0
    5.2592   -0.6071   17.7110 N   0  0  0  0  0  0  0  0  0  0  0  0
    4.2185    0.1839   17.8549 C   0  0  0  0  0  0  0  0  0  0  0  0
    3.9195    0.8640   19.0698 C   0  0  0  0  0  0  0  0  0  0  0  0
    2.8316    1.7538   19.2096 C   0  0  0  0  0  0  0  0  0  0  0  0
    2.1447    2.0553   18.0958 F   0  0  0  0  0  0  0  0  0  0  0  0
    2.4410    2.2802   20.4055 C   0  0  0  0  0  0  0  0  0  0  0  0
    3.2453    2.0186   21.5308 C   0  0  0  0  0  0  0  0  0  0  0  0
    4.3905    1.2685   21.4232 C   0  0  0  0  0  0  0  0  0  0  0  0
    4.7381    0.6427   20.1978 C   0  0  0  0  0  0  0  0  0  0  0  0
    5.0166    1.1354   22.2977 H   0  0  0  0  0  0  0  0  0  0  0  0
    2.9616    2.4259   22.4932 H   0  0  0  0  0  0  0  0  0  0  0  0
    1.5367    2.8795   20.4703 H   0  0  0  0  0  0  0  0  0  0  0  0
    3.5465    0.3096   17.0057 H   0  0  0  0  0  0  0  0  0  0  0  0
    6.9401   -1.4157   18.6363 H   0  0  0  0  0  0  0  0  0  0  0  0
    6.4154   -0.5953   22.0907 H   0  0  0  0  0  0  0  0  0  0  0  0
    7.5991   -1.1476   20.8881 H   0  0  0  0  0  0  0  0  0  0  0  0
    6.6308    1.0166   24.4652 C   0  0  0  0  0  0  0  0  0  0  0  0
    6.4315    0.2089   25.5828 C   0  0  0  0  0  0  0  0  0  0  0  0
    5.9330    1.8088   24.2126 H   0  0  0  0  0  0  0  0  0  0  0  0
    9.5158   -0.3495   23.3024 H   0  0  0  0  0  0  0  0  0  0  0  0
    9.2078   -1.7237   25.3783 H   0  0  0  0  0  0  0  0  0  0  0  0
    8.0383   -2.1037   27.4260 H   0  0  0  0  0  0  0  0  0  0  0  0
    6.3491   -2.3590   27.0032 H   0  0  0  0  0  0  0  0  0  0  0  0
    7.3714    0.2499   28.2304 H   0  0  0  0  0  0  0  0  0  0  0  0
    6.6132   -1.0232   29.2150 H   0  0  0  0  0  0  0  0  0  0  0  0
    4.5475   -0.7934   27.9234 H   0  0  0  0  0  0  0  0  0  0  0  0
    5.0365    0.8183   28.4848 H   0  0  0  0  0  0  0  0  0  0  0  0
    2.2801    1.7270   26.3164 H   0  0  0  0  0  0  0  0  0  0  0  0
    3.1887    1.2476   27.7610 H   0  0  0  0  0  0  0  0  0  0  0  0
    4.7745    3.1860   27.4017 H   0  0  0  0  0  0  0  0  0  0  0  0
    3.1033    3.7785   27.5026 H   0  0  0  0  0  0  0  0  0  0  0  0
    3.9050    3.6270   25.9265 H   0  0  0  0  0  0  0  0  0  0  0  0
  1  2  1  0
  2  3  1  0
  3  4  2  0
  3  5  1  0
  5  6  1  0
  6  7  1  0
  7  8  1  0
  8  9  1  0
  9 10  2  0
 10 11  1  0
 11 12  2  0
 12 13  1  0
 13 14  1  0
 14 15  1  0
 15 16  2  0
 16 17  1  0
 17 18  2  0
 18 19  1  0
 19 20  1  0
 19 21  2  0
 21 22  1  0
 18 23  1  0
 17 24  1  0
 16 25  1  0
 14 26  1  0
 14 27  1  0
 13 28  1  0
 28 29  2  0
 28 30  1  0
 30 31  1  0
 31 32  2  0
 32 33  1  0
 33 34  2  0
 34 35  1  0
 35 36  2  0
 36 37  1  0
 36 38  1  0
 38 39  2  0
 39 40  1  0
 40 41  2  0
 40 42  1  0
 39 43  1  0
 38 44  1  0
 34 45  1  0
 32 46  1  0
 30 47  1  0
 30 48  1  0
 12 49  1  0
 49 50  2  0
 49 51  1  0
 11 52  1  0
 10 53  1  0
  8 54  1  0
  8 55  1  0
  7 56  1  0
  7 57  1  0
  6 58  1  0
  6 59  1  0
  2 60  1  0
  2 61  1  0
  1 62  1  0
  1 63  1  0
  1 64  1  0
 50  5  1  0
 50  9  1  0
 21 15  1  0
 41 31  1  0
 41 35  1  0
M  END
>  <cnnaffinities>  (1) 
[6.22617, 6.32806, 6.58774, 6.72164, 6.46541, 6.84748, 6.9595]

>  <score>  (1) 
6.22617

>  <index>  (1) 
69

>  <Smiles>  (1) 
C(C(C(=O)N1C(C(C(c2c(c(c(N(C(c3c(c(c(c(Cl)c3[H])[H])[H])[H])([H])[H])C(=O)C(c3c(nc(c4c(F)c(c(c(c34)[H])[H])[H])[H])[H])([H])[H])c(c12)[H])[H])[H])([H])[H])([H])[H])([H])[H])([H])[H])([H])([H])[H]

>  <h>  (1) 
<NA>

>  <Training>  (1) 
True

>  <Success>  (1) 
True

>  <enamine_searched>  (1) 
False

>  <enamine_id>  (1) 
nan

$$$$
