
     RDKit          3D

 70 76  0  0  0  0  0  0  0  0999 V2000
    8.2842   -1.5402   24.1868 C   0  0  0  0  0  0  0  0  0  0  0  0
    8.1928   -1.2386   22.6992 C   0  0  1  0  0  0  0  0  0  0  0  0
    6.7503   -1.1961   22.1585 C   0  0  0  0  0  0  0  0  0  0  0  0
    6.8779   -0.3599   20.9808 N   0  0  0  0  0  0  0  0  0  0  0  0
    5.9105   -0.1776   19.9603 C   0  0  0  0  0  0  0  0  0  0  0  0
    6.1221   -0.7468   18.7318 C   0  0  0  0  0  0  0  0  0  0  0  0
    5.2947   -0.6121   17.6684 N   0  0  0  0  0  0  0  0  0  0  0  0
    4.2217    0.1236   17.8360 C   0  0  0  0  0  0  0  0  0  0  0  0
    3.8822    0.7853   19.0490 C   0  0  0  0  0  0  0  0  0  0  0  0
    2.7233    1.5985   19.1600 C   0  0  0  0  0  0  0  0  0  0  0  0
    2.4227    2.2276   20.3372 C   0  0  0  0  0  0  0  0  0  0  0  0
    3.2774    2.0881   21.4503 C   0  0  0  0  0  0  0  0  0  0  0  0
    4.4148    1.3187   21.3661 C   0  0  0  0  0  0  0  0  0  0  0  0
    4.7464    0.6331   20.1619 C   0  0  0  0  0  0  0  0  0  0  0  0
    5.0821    1.2486   22.2210 H   0  0  0  0  0  0  0  0  0  0  0  0
    3.0340    2.6021   22.3774 H   0  0  0  0  0  0  0  0  0  0  0  0
    1.5275    2.8453   20.4130 H   0  0  0  0  0  0  0  0  0  0  0  0
    2.1026    1.7267   18.2793 H   0  0  0  0  0  0  0  0  0  0  0  0
    3.5500    0.2308   16.9828 H   0  0  0  0  0  0  0  0  0  0  0  0
    7.0105   -1.3529   18.5681 H   0  0  0  0  0  0  0  0  0  0  0  0
    8.0445    0.3658   20.9543 C   0  0  0  0  0  0  0  0  0  0  0  0
    8.3456    1.1349   20.0641 O   0  0  0  0  0  0  0  0  0  0  0  0
    8.8378    0.1016   22.2437 C   0  0  1  0  0  0  0  0  0  0  0  0
    8.5438    1.2663   23.2369 C   0  0  0  0  0  0  0  0  0  0  0  0
    9.0857    2.5248   22.7520 N   0  0  0  0  0  0  0  0  0  0  0  0
    8.2765    3.7309   22.7460 C   0  0  0  0  0  0  0  0  0  0  0  0
    7.2873    3.7613   21.5799 C   0  0  0  0  0  0  0  0  0  0  0  0
    6.3765    4.9327   21.6422 N   0  0  2  0  0  0  0  0  0  0  0  0
    5.5091    4.9330   22.8736 C   0  0  0  0  0  0  0  0  0  0  0  0
    4.3049    5.8052   22.5386 C   0  0  0  0  0  0  0  0  0  0  0  0
    4.2422    5.9157   21.0089 C   0  0  0  0  0  0  0  0  0  0  0  0
    2.8484    5.6427   20.4116 C   0  0  0  0  0  0  0  0  0  0  0  0
    2.6134    7.0448   20.2180 O   0  0  0  0  0  0  0  0  0  0  0  0
    3.9953    7.3451   20.4713 C   0  0  0  0  0  0  0  0  0  0  0  0
    4.5691    7.5840   19.5597 H   0  0  0  0  0  0  0  0  0  0  0  0
    4.1091    8.1841   21.1716 H   0  0  0  0  0  0  0  0  0  0  0  0
    2.1124    5.1986   21.0931 H   0  0  0  0  0  0  0  0  0  0  0  0
    2.8403    5.0816   19.4641 H   0  0  0  0  0  0  0  0  0  0  0  0
    5.4266    5.1083   20.4844 C   0  0  0  0  0  0  0  0  0  0  0  0
    5.9523    5.5908   19.6586 H   0  0  0  0  0  0  0  0  0  0  0  0
    5.1119    4.1131   20.1508 H   0  0  0  0  0  0  0  0  0  0  0  0
    4.4164    6.7900   22.9982 H   0  0  0  0  0  0  0  0  0  0  0  0
    3.4002    5.3464   22.9466 H   0  0  0  0  0  0  0  0  0  0  0  0
    5.2221    3.8962   23.0621 H   0  0  0  0  0  0  0  0  0  0  0  0
    6.0792    5.2922   23.7290 H   0  0  0  0  0  0  0  0  0  0  0  0
    6.9794    5.7800   21.6548 H   0  0  0  0  0  0  0  0  0  0  0  0
    6.6815    2.8538   21.5989 H   0  0  0  0  0  0  0  0  0  0  0  0
    7.8326    3.7456   20.6335 H   0  0  0  0  0  0  0  0  0  0  0  0
    7.7591    3.8177   23.7095 H   0  0  0  0  0  0  0  0  0  0  0  0
    8.9643    4.5728   22.6670 H   0  0  0  0  0  0  0  0  0  0  0  0
   10.3905    2.6037   22.3688 C   0  0  0  0  0  0  0  0  0  0  0  0
   10.9740    3.6628   22.1744 O   0  0  0  0  0  0  0  0  0  0  0  0
   11.0770    1.2776   22.1754 C   0  0  0  0  0  0  0  0  0  0  0  0
   12.4646    1.2795   22.0621 C   0  0  0  0  0  0  0  0  0  0  0  0
   13.1277    0.1489   21.6339 C   0  0  0  0  0  0  0  0  0  0  0  0
   12.3861   -0.9885   21.3188 C   0  0  0  0  0  0  0  0  0  0  0  0
   13.2249   -2.3267   20.5983 Cl  0  0  0  0  0  0  0  0  0  0  0  0
   11.0143   -1.0376   21.5116 C   0  0  0  0  0  0  0  0  0  0  0  0
   10.3370    0.0954   21.9940 C   0  0  0  0  0  0  0  0  0  0  0  0
   10.4928   -1.9599   21.2796 H   0  0  0  0  0  0  0  0  0  0  0  0
   14.1971    0.1611   21.4797 H   0  0  0  0  0  0  0  0  0  0  0  0
   13.0240    2.1803   22.2941 H   0  0  0  0  0  0  0  0  0  0  0  0
    9.0073    1.0278   24.2053 H   0  0  0  0  0  0  0  0  0  0  0  0
    7.4655    1.3750   23.3912 H   0  0  0  0  0  0  0  0  0  0  0  0
    6.3649   -2.1894   21.9033 H   0  0  0  0  0  0  0  0  0  0  0  0
    6.0635   -0.7565   22.8962 H   0  0  0  0  0  0  0  0  0  0  0  0
    8.6929   -2.0400   22.1482 H   0  0  0  0  0  0  0  0  0  0  0  0
    7.8785   -2.5294   24.4203 H   0  0  0  0  0  0  0  0  0  0  0  0
    7.7119   -0.8082   24.7655 H   0  0  0  0  0  0  0  0  0  0  0  0
    9.3227   -1.5011   24.5305 H   0  0  0  0  0  0  0  0  0  0  0  0
  1  2  1  0
  2  3  1  0
  3  4  1  0
  4  5  1  0
  5  6  2  0
  6  7  1  0
  7  8  2  0
  8  9  1  0
  9 10  2  0
 10 11  1  0
 11 12  2  0
 12 13  1  0
 13 14  2  0
 13 15  1  0
 12 16  1  0
 11 17  1  0
 10 18  1  0
  8 19  1  0
  6 20  1  0
  4 21  1  0
 21 22  2  0
 21 23  1  0
 23 24  1  1
 24 25  1  0
 25 26  1  0
 26 27  1  0
 27 28  1  0
 28 29  1  0
 29 30  1  0
 30 31  1  0
 31 32  1  0
 32 33  1  0
 33 34  1  0
 34 35  1  0
 34 36  1  0
 32 37  1  0
 32 38  1  0
 31 39  1  0
 39 40  1  0
 39 41  1  0
 30 42  1  0
 30 43  1  0
 29 44  1  0
 29 45  1  0
 28 46  1  1
 27 47  1  0
 27 48  1  0
 26 49  1  0
 26 50  1  0
 25 51  1  0
 51 52  2  0
 51 53  1  0
 53 54  2  0
 54 55  1  0
 55 56  2  0
 56 57  1  0
 56 58  1  0
 58 59  2  0
 58 60  1  0
 55 61  1  0
 54 62  1  0
 24 63  1  0
 24 64  1  0
  3 65  1  0
  3 66  1  0
  2 67  1  6
  1 68  1  0
  1 69  1  0
  1 70  1  0
 23  2  1  0
 39 28  1  0
 59 53  1  0
 14  5  1  0
 59 23  1  0
 14  9  1  0
 34 31  1  0
M  CHG  1  28   1
M  END
>  <cnnaffinities>  (1) 
[6.74183]

>  <score>  (1) 
6.74183

>  <index>  (1) 
62

>  <Smiles>  (1) 
C([C@]1(C(N(c2c(nc(c3c(c(c(c(c23)[H])[H])[H])[H])[H])[H])C(=O)[C@]21C(N(C(C([N@@+]1(C(C(C3(C(OC3([H])[H])([H])[H])C1([H])[H])([H])[H])([H])[H])[H])([H])[H])([H])[H])C(=O)c1c(c(c(Cl)c(c21)[H])[H])[H])([H])[H])([H])[H])[H])([H])([H])[H]

>  <h>  (1) 
<NA>

>  <Training>  (1) 
True

>  <Success>  (1) 
True

>  <enamine_searched>  (1) 
False

>  <enamine_id>  (1) 
nan

$$$$
