
     RDKit          3D

 67 72  0  0  0  0  0  0  0  0999 V2000
    6.8690    3.7032   28.3036 C   0  0  0  0  0  0  0  0  0  0  0  0
    6.9466    3.7922   26.8583 N   0  0  0  0  0  0  0  0  0  0  0  0
    6.4497    2.7540   26.1367 C   0  0  0  0  0  0  0  0  0  0  0  0
    5.9165    1.7834   26.6521 O   0  0  0  0  0  0  0  0  0  0  0  0
    6.5883    2.9170   24.6228 C   0  0  0  0  0  0  0  0  0  0  0  0
    7.7408    2.2141   24.0978 N   0  0  0  0  0  0  0  0  0  0  0  0
    7.7106    0.7661   23.9721 C   0  0  0  0  0  0  0  0  0  0  0  0
    8.4018    0.3042   22.6556 C   0  0  2  0  0  0  0  0  0  0  0  0
    7.5817    0.7629   21.4267 C   0  0  0  0  0  0  0  0  0  0  0  0
    7.5757    1.8498   20.8919 O   0  0  0  0  0  0  0  0  0  0  0  0
    6.8446   -0.3141   20.9846 N   0  0  0  0  0  0  0  0  0  0  0  0
    5.8849   -0.1691   19.9650 C   0  0  0  0  0  0  0  0  0  0  0  0
    6.0749   -0.7962   18.7616 C   0  0  0  0  0  0  0  0  0  0  0  0
    5.2649   -0.6533   17.6886 N   0  0  0  0  0  0  0  0  0  0  0  0
    4.2068    0.1096   17.8356 C   0  0  0  0  0  0  0  0  0  0  0  0
    3.8619    0.7677   19.0494 C   0  0  0  0  0  0  0  0  0  0  0  0
    2.6861    1.5524   19.1621 C   0  0  0  0  0  0  0  0  0  0  0  0
    2.3477    2.1345   20.3508 C   0  0  0  0  0  0  0  0  0  0  0  0
    3.1881    1.9914   21.4756 C   0  0  0  0  0  0  0  0  0  0  0  0
    4.3447    1.2618   21.3859 C   0  0  0  0  0  0  0  0  0  0  0  0
    4.7148    0.6281   20.1624 C   0  0  0  0  0  0  0  0  0  0  0  0
    4.9885    1.1758   22.2564 H   0  0  0  0  0  0  0  0  0  0  0  0
    2.9151    2.4685   22.4124 H   0  0  0  0  0  0  0  0  0  0  0  0
    1.4306    2.7086   20.4390 H   0  0  0  0  0  0  0  0  0  0  0  0
    2.0698    1.6842   18.2803 H   0  0  0  0  0  0  0  0  0  0  0  0
    3.5447    0.2150   16.9757 H   0  0  0  0  0  0  0  0  0  0  0  0
    6.9477   -1.4346   18.6259 H   0  0  0  0  0  0  0  0  0  0  0  0
    7.0549   -1.5307   21.7386 C   0  0  0  0  0  0  0  0  0  0  0  0
    8.3558   -1.2416   22.4913 C   0  0  2  0  0  0  0  0  0  0  0  0
    8.4992   -2.0872   23.7571 C   0  0  0  0  0  0  0  0  0  0  0  0
    9.6730   -1.7925   24.4820 O   0  0  0  0  0  0  0  0  0  0  0  0
   10.7990   -2.5509   24.0871 C   0  0  0  0  0  0  0  0  0  0  0  0
   12.0360   -2.0506   24.7947 C   0  0  0  0  0  0  0  0  0  0  0  0
   12.1825   -0.6084   25.1853 C   0  0  0  0  0  0  0  0  0  0  0  0
   11.9552   -1.6581   26.2370 C   0  0  0  0  0  0  0  0  0  0  0  0
   12.8013   -1.8973   26.8764 H   0  0  0  0  0  0  0  0  0  0  0  0
   10.9762   -1.6868   26.7060 H   0  0  0  0  0  0  0  0  0  0  0  0
   11.3434    0.0450   24.9504 H   0  0  0  0  0  0  0  0  0  0  0  0
   13.1830   -0.1882   25.1374 H   0  0  0  0  0  0  0  0  0  0  0  0
   12.9501   -2.5404   24.4661 H   0  0  0  0  0  0  0  0  0  0  0  0
   10.9536   -2.4827   22.9982 H   0  0  0  0  0  0  0  0  0  0  0  0
   10.6344   -3.6167   24.3287 H   0  0  0  0  0  0  0  0  0  0  0  0
    7.6526   -1.8893   24.4268 H   0  0  0  0  0  0  0  0  0  0  0  0
    8.4595   -3.1584   23.4973 H   0  0  0  0  0  0  0  0  0  0  0  0
    9.1711   -1.5033   21.8147 H   0  0  0  0  0  0  0  0  0  0  0  0
    7.1500   -2.3867   21.0664 H   0  0  0  0  0  0  0  0  0  0  0  0
    6.2202   -1.7394   22.4260 H   0  0  0  0  0  0  0  0  0  0  0  0
    9.7868    0.9203   22.6369 C   0  0  0  0  0  0  0  0  0  0  0  0
   10.8753    0.2958   22.0211 C   0  0  0  0  0  0  0  0  0  0  0  0
   12.1453    0.8357   22.1293 C   0  0  0  0  0  0  0  0  0  0  0  0
   13.4941   -0.1310   21.5895 Cl  0  0  0  0  0  0  0  0  0  0  0  0
   12.3582    2.0804   22.7233 C   0  0  0  0  0  0  0  0  0  0  0  0
   11.2726    2.7366   23.2675 C   0  0  0  0  0  0  0  0  0  0  0  0
   10.0038    2.1664   23.2413 C   0  0  0  0  0  0  0  0  0  0  0  0
    8.8707    2.9361   23.8524 C   0  0  0  0  0  0  0  0  0  0  0  0
    8.9446    4.1271   24.1263 O   0  0  0  0  0  0  0  0  0  0  0  0
   11.3833    3.6982   23.7545 H   0  0  0  0  0  0  0  0  0  0  0  0
   13.3467    2.5272   22.7483 H   0  0  0  0  0  0  0  0  0  0  0  0
   10.7501   -0.6089   21.4389 H   0  0  0  0  0  0  0  0  0  0  0  0
    8.2238    0.2875   24.8238 H   0  0  0  0  0  0  0  0  0  0  0  0
    6.6590    0.4592   23.9890 H   0  0  0  0  0  0  0  0  0  0  0  0
    5.6953    2.5135   24.1429 H   0  0  0  0  0  0  0  0  0  0  0  0
    6.6742    3.9735   24.3500 H   0  0  0  0  0  0  0  0  0  0  0  0
    7.6431    4.3802   26.4143 H   0  0  0  0  0  0  0  0  0  0  0  0
    7.3926    2.8128   28.6763 H   0  0  0  0  0  0  0  0  0  0  0  0
    5.8208    3.6366   28.6084 H   0  0  0  0  0  0  0  0  0  0  0  0
    7.3077    4.5955   28.7517 H   0  0  0  0  0  0  0  0  0  0  0  0
  1  2  1  0
  2  3  1  0
  3  4  2  0
  3  5  1  0
  5  6  1  0
  6  7  1  0
  8  7  1  1
  8  9  1  0
  9 10  2  0
  9 11  1  0
 11 12  1  0
 12 13  2  0
 13 14  1  0
 14 15  2  0
 15 16  1  0
 16 17  2  0
 17 18  1  0
 18 19  2  0
 19 20  1  0
 20 21  2  0
 20 22  1  0
 19 23  1  0
 18 24  1  0
 17 25  1  0
 15 26  1  0
 13 27  1  0
 11 28  1  0
 28 29  1  0
 29 30  1  0
 30 31  1  0
 31 32  1  0
 32 33  1  0
 33 34  1  0
 34 35  1  0
 35 36  1  0
 35 37  1  0
 34 38  1  0
 34 39  1  0
 33 40  1  0
 32 41  1  0
 32 42  1  0
 30 43  1  0
 30 44  1  0
 29 45  1  6
 28 46  1  0
 28 47  1  0
  8 48  1  0
 48 49  2  0
 49 50  1  0
 50 51  1  0
 50 52  2  0
 52 53  1  0
 53 54  2  0
 54 55  1  0
 55 56  2  0
 53 57  1  0
 52 58  1  0
 49 59  1  0
  7 60  1  0
  7 61  1  0
  5 62  1  0
  5 63  1  0
  2 64  1  0
  1 65  1  0
  1 66  1  0
  1 67  1  0
 55  6  1  0
 29  8  1  0
 35 33  1  0
 54 48  1  0
 21 12  1  0
 21 16  1  0
M  END
>  <cnnaffinities>  (1) 
[6.2466, 6.56959]

>  <score>  (1) 
6.2466

>  <index>  (1) 
13

>  <Smiles>  (1) 
C(N(C(=O)C(N1C([C@@]2(C(=O)N(c3c(nc(c4c(c(c(c(c34)[H])[H])[H])[H])[H])[H])C([C@@]2(C(OC(C2(C(C2([H])[H])([H])[H])[H])([H])[H])([H])[H])[H])([H])[H])c2c(c(Cl)c(c(c2C1=O)[H])[H])[H])([H])[H])([H])[H])[H])([H])([H])[H]

>  <h>  (1) 
<NA>

>  <Training>  (1) 
True

>  <Success>  (1) 
True

>  <enamine_searched>  (1) 
False

>  <enamine_id>  (1) 
nan

$$$$
