
     RDKit          3D

 41 43  0  0  0  0  0  0  0  0999 V2000
    6.8838    4.0415   24.9625 C   0  0  0  0  0  0  0  0  0  0  0  0
    7.4370    2.9325   24.0908 C   0  0  1  0  0  0  0  0  0  0  0  0
    8.4388    3.4603   23.0595 C   0  0  0  0  0  0  0  0  0  0  0  0
    9.3287    2.3714   22.4357 C   0  0  0  0  0  0  0  0  0  0  0  0
    8.6780    1.0701   22.2345 N   0  0  0  0  0  0  0  0  0  0  0  0
    7.8150    0.9503   21.1694 C   0  0  0  0  0  0  0  0  0  0  0  0
    7.7776    1.8017   20.3001 O   0  0  0  0  0  0  0  0  0  0  0  0
    6.9113   -0.3002   21.0539 C   0  0  0  0  0  0  0  0  0  0  0  0
    5.8679   -0.1780   19.9723 C   0  0  0  0  0  0  0  0  0  0  0  0
    6.0357   -0.8029   18.7647 C   0  0  0  0  0  0  0  0  0  0  0  0
    5.2182   -0.6791   17.6844 N   0  0  0  0  0  0  0  0  0  0  0  0
    4.1585    0.0803   17.8281 C   0  0  0  0  0  0  0  0  0  0  0  0
    3.8213    0.7456   19.0393 C   0  0  0  0  0  0  0  0  0  0  0  0
    2.6364    1.5126   19.1699 C   0  0  0  0  0  0  0  0  0  0  0  0
    2.3351    2.1527   20.3416 C   0  0  0  0  0  0  0  0  0  0  0  0
    3.2188    2.0581   21.4376 C   0  0  0  0  0  0  0  0  0  0  0  0
    4.3715    1.3144   21.3394 C   0  0  0  0  0  0  0  0  0  0  0  0
    4.7025    0.6277   20.1407 C   0  0  0  0  0  0  0  0  0  0  0  0
    5.0402    1.2585   22.1943 H   0  0  0  0  0  0  0  0  0  0  0  0
    2.9800    2.5830   22.3575 H   0  0  0  0  0  0  0  0  0  0  0  0
    1.4279    2.7466   20.4264 H   0  0  0  0  0  0  0  0  0  0  0  0
    1.9787    1.6058   18.3144 H   0  0  0  0  0  0  0  0  0  0  0  0
    3.5047    0.2012   16.9604 H   0  0  0  0  0  0  0  0  0  0  0  0
    6.8788   -1.4752   18.6143 H   0  0  0  0  0  0  0  0  0  0  0  0
    6.4209   -0.5235   22.0101 H   0  0  0  0  0  0  0  0  0  0  0  0
    7.5570   -1.1559   20.8145 H   0  0  0  0  0  0  0  0  0  0  0  0
    8.6853    0.1776   23.3812 C   0  0  0  0  0  0  0  0  0  0  0  0
    7.7824    0.6125   24.5386 C   0  0  0  0  0  0  0  0  0  0  0  0
    7.9988    1.9458   24.9467 O   0  0  0  0  0  0  0  0  0  0  0  0
    7.9729   -0.0183   25.4186 H   0  0  0  0  0  0  0  0  0  0  0  0
    6.7242    0.4762   24.2691 H   0  0  0  0  0  0  0  0  0  0  0  0
    8.4341   -0.8381   23.0635 H   0  0  0  0  0  0  0  0  0  0  0  0
    9.7124    0.1442   23.7528 H   0  0  0  0  0  0  0  0  0  0  0  0
    9.7224    2.7197   21.4790 H   0  0  0  0  0  0  0  0  0  0  0  0
   10.1824    2.1980   23.0926 H   0  0  0  0  0  0  0  0  0  0  0  0
    9.0767    4.2259   23.5271 H   0  0  0  0  0  0  0  0  0  0  0  0
    7.8796    3.9692   22.2656 H   0  0  0  0  0  0  0  0  0  0  0  0
    6.6023    2.4743   23.5463 H   0  0  0  0  0  0  0  0  0  0  0  0
    6.1354    3.6413   25.6522 H   0  0  0  0  0  0  0  0  0  0  0  0
    6.4075    4.8089   24.3440 H   0  0  0  0  0  0  0  0  0  0  0  0
    7.6833    4.5029   25.5486 H   0  0  0  0  0  0  0  0  0  0  0  0
  1  2  1  0
  2  3  1  0
  3  4  1  0
  4  5  1  0
  5  6  1  0
  6  7  2  0
  6  8  1  0
  8  9  1  0
  9 10  2  0
 10 11  1  0
 11 12  2  0
 12 13  1  0
 13 14  2  0
 14 15  1  0
 15 16  2  0
 16 17  1  0
 17 18  2  0
 17 19  1  0
 16 20  1  0
 15 21  1  0
 14 22  1  0
 12 23  1  0
 10 24  1  0
  8 25  1  0
  8 26  1  0
  5 27  1  0
 27 28  1  0
 28 29  1  0
 28 30  1  0
 28 31  1  0
 27 32  1  0
 27 33  1  0
  4 34  1  0
  4 35  1  0
  3 36  1  0
  3 37  1  0
  2 38  1  6
  1 39  1  0
  1 40  1  0
  1 41  1  0
 29  2  1  0
 18  9  1  0
 18 13  1  0
M  END
>  <cnnaffinities>  (1) 
[4.80842, 4.80771, 4.98231, 5.08843, 4.74552, 4.8048, 4.94955]

>  <score>  (1) 
4.80842

>  <index>  (1) 
48

>  <Smiles>  (1) 
C([C@]1(C(C(N(C(=O)C(c2c(nc(c3c(c(c(c(c23)[H])[H])[H])[H])[H])[H])([H])[H])C(C(O1)([H])[H])([H])[H])([H])[H])([H])[H])[H])([H])([H])[H]

>  <h>  (1) 
<NA>

>  <Training>  (1) 
True

>  <Success>  (1) 
True

>  <enamine_searched>  (1) 
False

>  <enamine_id>  (1) 
nan

$$$$
