
     RDKit          3D

 64 68  0  0  0  0  0  0  0  0999 V2000
    3.5164    3.6007   28.3708 C   0  0  0  0  0  0  0  0  0  0  0  0
    3.5304    2.7563   27.0908 C   0  0  0  0  0  0  0  0  0  0  0  0
    4.9321    2.3999   26.5866 C   0  0  0  0  0  0  0  0  0  0  0  0
    5.5375    3.2339   25.9271 O   0  0  0  0  0  0  0  0  0  0  0  0
    5.3882    1.0894   26.6921 N   0  0  0  0  0  0  0  0  0  0  0  0
    4.8834    0.2404   27.7738 C   0  0  0  0  0  0  0  0  0  0  0  0
    6.0620   -0.5245   28.3689 C   0  0  0  0  0  0  0  0  0  0  0  0
    6.6314   -1.4570   27.2982 C   0  0  0  0  0  0  0  0  0  0  0  0
    6.9148   -0.7004   26.0238 C   0  0  0  0  0  0  0  0  0  0  0  0
    7.7694   -1.2747   25.0746 C   0  0  0  0  0  0  0  0  0  0  0  0
    7.9911   -0.6384   23.8532 C   0  0  0  0  0  0  0  0  0  0  0  0
    7.3944    0.5922   23.5801 C   0  0  0  0  0  0  0  0  0  0  0  0
    7.7267    1.2441   22.3936 N   0  0  0  0  0  0  0  0  0  0  0  0
    8.1683    2.6431   22.4596 C   0  0  0  0  0  0  0  0  0  0  0  0
    9.6397    2.8353   22.7647 C   0  0  0  0  0  0  0  0  0  0  0  0
   10.4086    1.8642   23.4212 C   0  0  0  0  0  0  0  0  0  0  0  0
   11.6648    2.1663   23.9523 C   0  0  0  0  0  0  0  0  0  0  0  0
   12.1688    3.4611   23.8059 C   0  0  0  0  0  0  0  0  0  0  0  0
   11.5017    4.3942   23.0137 C   0  0  0  0  0  0  0  0  0  0  0  0
   12.2881    6.0996   22.6455 Br  0  0  0  0  0  0  0  0  0  0  0  0
   10.2254    4.0863   22.5289 C   0  0  0  0  0  0  0  0  0  0  0  0
    9.6754    4.8454   21.9870 H   0  0  0  0  0  0  0  0  0  0  0  0
   13.0889    3.7520   24.2954 H   0  0  0  0  0  0  0  0  0  0  0  0
   12.2123    1.4051   24.5089 H   0  0  0  0  0  0  0  0  0  0  0  0
   10.0175    0.8753   23.5863 H   0  0  0  0  0  0  0  0  0  0  0  0
    7.9180    3.1649   21.5276 H   0  0  0  0  0  0  0  0  0  0  0  0
    7.6189    3.1402   23.2682 H   0  0  0  0  0  0  0  0  0  0  0  0
    7.6911    0.5632   21.1808 C   0  0  0  0  0  0  0  0  0  0  0  0
    8.2419    1.0567   20.2016 O   0  0  0  0  0  0  0  0  0  0  0  0
    6.7706   -0.6589   20.9744 C   0  0  0  0  0  0  0  0  0  0  0  0
    5.7709   -0.4021   19.8477 C   0  0  0  0  0  0  0  0  0  0  0  0
    5.9855   -0.9348   18.5631 C   0  0  0  0  0  0  0  0  0  0  0  0
    5.2082   -0.6538   17.5037 N   0  0  0  0  0  0  0  0  0  0  0  0
    4.1537    0.1591   17.6987 C   0  0  0  0  0  0  0  0  0  0  0  0
    3.8387    0.7254   18.9401 C   0  0  0  0  0  0  0  0  0  0  0  0
    2.7328    1.5788   19.0970 C   0  0  0  0  0  0  0  0  0  0  0  0
    2.4682    2.1655   20.3378 C   0  0  0  0  0  0  0  0  0  0  0  0
    3.3091    1.9133   21.4251 C   0  0  0  0  0  0  0  0  0  0  0  0
    4.4052    1.0560   21.2744 C   0  0  0  0  0  0  0  0  0  0  0  0
    4.6722    0.4500   20.0378 C   0  0  0  0  0  0  0  0  0  0  0  0
    5.0593    0.8687   22.1203 H   0  0  0  0  0  0  0  0  0  0  0  0
    3.1167    2.3919   22.3813 H   0  0  0  0  0  0  0  0  0  0  0  0
    1.6185    2.8325   20.4531 H   0  0  0  0  0  0  0  0  0  0  0  0
    2.0843    1.8092   18.2574 H   0  0  0  0  0  0  0  0  0  0  0  0
    3.5138    0.3815   16.8513 H   0  0  0  0  0  0  0  0  0  0  0  0
    6.8491   -1.5762   18.4129 H   0  0  0  0  0  0  0  0  0  0  0  0
    7.3852   -1.5345   20.7534 H   0  0  0  0  0  0  0  0  0  0  0  0
    6.2290   -0.8725   21.9019 H   0  0  0  0  0  0  0  0  0  0  0  0
    6.5450    1.1725   24.5301 C   0  0  0  0  0  0  0  0  0  0  0  0
    6.2896    0.5385   25.7578 C   0  0  0  0  0  0  0  0  0  0  0  0
    6.0664    2.1189   24.3021 H   0  0  0  0  0  0  0  0  0  0  0  0
    8.6636   -1.0637   23.1157 H   0  0  0  0  0  0  0  0  0  0  0  0
    8.2688   -2.2172   25.2862 H   0  0  0  0  0  0  0  0  0  0  0  0
    7.5428   -1.9374   27.6603 H   0  0  0  0  0  0  0  0  0  0  0  0
    5.9073   -2.2483   27.0819 H   0  0  0  0  0  0  0  0  0  0  0  0
    6.8223    0.1931   28.6918 H   0  0  0  0  0  0  0  0  0  0  0  0
    5.7435   -1.1045   29.2398 H   0  0  0  0  0  0  0  0  0  0  0  0
    4.4165    0.8447   28.5601 H   0  0  0  0  0  0  0  0  0  0  0  0
    4.1324   -0.4579   27.3873 H   0  0  0  0  0  0  0  0  0  0  0  0
    3.0146    3.2965   26.2903 H   0  0  0  0  0  0  0  0  0  0  0  0
    2.9821    1.8280   27.2690 H   0  0  0  0  0  0  0  0  0  0  0  0
    4.0843    4.5276   28.2280 H   0  0  0  0  0  0  0  0  0  0  0  0
    3.9475    3.0426   29.2095 H   0  0  0  0  0  0  0  0  0  0  0  0
    2.4820    3.8600   28.6282 H   0  0  0  0  0  0  0  0  0  0  0  0
  1  2  1  0
  2  3  1  0
  3  4  2  0
  3  5  1  0
  5  6  1  0
  6  7  1  0
  7  8  1  0
  8  9  1  0
  9 10  2  0
 10 11  1  0
 11 12  2  0
 12 13  1  0
 13 14  1  0
 14 15  1  0
 15 16  2  0
 16 17  1  0
 17 18  2  0
 18 19  1  0
 19 20  1  0
 19 21  2  0
 21 22  1  0
 18 23  1  0
 17 24  1  0
 16 25  1  0
 14 26  1  0
 14 27  1  0
 13 28  1  0
 28 29  2  0
 28 30  1  0
 30 31  1  0
 31 32  2  0
 32 33  1  0
 33 34  2  0
 34 35  1  0
 35 36  2  0
 36 37  1  0
 37 38  2  0
 38 39  1  0
 39 40  2  0
 39 41  1  0
 38 42  1  0
 37 43  1  0
 36 44  1  0
 34 45  1  0
 32 46  1  0
 30 47  1  0
 30 48  1  0
 12 49  1  0
 49 50  2  0
 49 51  1  0
 11 52  1  0
 10 53  1  0
  8 54  1  0
  8 55  1  0
  7 56  1  0
  7 57  1  0
  6 58  1  0
  6 59  1  0
  2 60  1  0
  2 61  1  0
  1 62  1  0
  1 63  1  0
  1 64  1  0
 50  5  1  0
 50  9  1  0
 21 15  1  0
 40 31  1  0
 40 35  1  0
M  END
>  <cnnaffinities>  (1) 
[6.32121, 6.82452, 6.79881, 6.4433, 6.86402]

>  <score>  (1) 
6.32121

>  <index>  (1) 
88

>  <Smiles>  (1) 
C(C(C(=O)N1C(C(C(c2c(c(c(N(C(c3c(c(c(c(Br)c3[H])[H])[H])[H])([H])[H])C(=O)C(c3c(nc(c4c(c(c(c(c34)[H])[H])[H])[H])[H])[H])([H])[H])c(c12)[H])[H])[H])([H])[H])([H])[H])([H])[H])([H])[H])([H])([H])[H]

>  <h>  (1) 
<NA>

>  <Training>  (1) 
True

>  <Success>  (1) 
True

>  <enamine_searched>  (1) 
False

>  <enamine_id>  (1) 
nan

$$$$
