
     RDKit          3D

 51 54  0  0  0  0  0  0  0  0999 V2000
    7.6306    8.0559   21.8853 C   0  0  0  0  0  0  0  0  0  0  0  0
    8.5214    7.1929   22.5578 O   0  0  0  0  0  0  0  0  0  0  0  0
    8.3171    5.8564   22.4596 C   0  0  0  0  0  0  0  0  0  0  0  0
    7.3030    5.2625   21.7179 C   0  0  0  0  0  0  0  0  0  0  0  0
    7.1917    3.8760   21.6868 C   0  0  0  0  0  0  0  0  0  0  0  0
    8.0587    3.0534   22.4047 C   0  0  0  0  0  0  0  0  0  0  0  0
    7.8589    1.6341   22.4111 N   0  0  0  0  0  0  0  0  0  0  0  0
    7.8835    0.8785   23.6609 C   0  0  0  0  0  0  0  0  0  0  0  0
    8.8346   -0.3116   23.6424 C   0  0  0  0  0  0  0  0  0  0  0  0
   10.1818   -0.1382   23.3266 C   0  0  0  0  0  0  0  0  0  0  0  0
   11.0528   -1.2234   23.3015 C   0  0  0  0  0  0  0  0  0  0  0  0
   10.5936   -2.5076   23.5801 C   0  0  0  0  0  0  0  0  0  0  0  0
    9.2532   -2.6765   23.8961 C   0  0  0  0  0  0  0  0  0  0  0  0
    8.6598   -4.2792   24.2487 Cl  0  0  0  0  0  0  0  0  0  0  0  0
    8.3742   -1.5977   23.9368 C   0  0  0  0  0  0  0  0  0  0  0  0
    7.3369   -1.7809   24.2091 H   0  0  0  0  0  0  0  0  0  0  0  0
   11.2567   -3.3676   23.5592 H   0  0  0  0  0  0  0  0  0  0  0  0
   12.1022   -1.0665   23.0582 H   0  0  0  0  0  0  0  0  0  0  0  0
   10.5600    0.8571   23.0994 H   0  0  0  0  0  0  0  0  0  0  0  0
    6.8760    0.5050   23.8960 H   0  0  0  0  0  0  0  0  0  0  0  0
    8.1670    1.5907   24.4435 H   0  0  0  0  0  0  0  0  0  0  0  0
    7.7005    0.9874   21.1940 C   0  0  0  0  0  0  0  0  0  0  0  0
    8.2138    1.4080   20.1812 O   0  0  0  0  0  0  0  0  0  0  0  0
    6.8731   -0.3040   21.1069 C   0  0  0  0  0  0  0  0  0  0  0  0
    5.8585   -0.1903   19.9908 C   0  0  0  0  0  0  0  0  0  0  0  0
    6.0472   -0.7963   18.7768 C   0  0  0  0  0  0  0  0  0  0  0  0
    5.2417   -0.6552   17.6887 N   0  0  0  0  0  0  0  0  0  0  0  0
    4.1796    0.0969   17.8315 C   0  0  0  0  0  0  0  0  0  0  0  0
    3.8252    0.7527   19.0408 C   0  0  0  0  0  0  0  0  0  0  0  0
    2.6488    1.5356   19.1655 C   0  0  0  0  0  0  0  0  0  0  0  0
    2.3423    2.1588   20.3388 C   0  0  0  0  0  0  0  0  0  0  0  0
    3.2191    2.0550   21.4411 C   0  0  0  0  0  0  0  0  0  0  0  0
    4.3708    1.3181   21.3440 C   0  0  0  0  0  0  0  0  0  0  0  0
    4.6992    0.6271   20.1465 C   0  0  0  0  0  0  0  0  0  0  0  0
    5.0430    1.2682   22.1971 H   0  0  0  0  0  0  0  0  0  0  0  0
    2.9885    2.5723   22.3678 H   0  0  0  0  0  0  0  0  0  0  0  0
    1.4320    2.7450   20.4282 H   0  0  0  0  0  0  0  0  0  0  0  0
    2.0066    1.6424   18.2993 H   0  0  0  0  0  0  0  0  0  0  0  0
    3.5154    0.1898   16.9685 H   0  0  0  0  0  0  0  0  0  0  0  0
    6.8978   -1.4586   18.6064 H   0  0  0  0  0  0  0  0  0  0  0  0
    6.4125   -0.5706   22.0637 H   0  0  0  0  0  0  0  0  0  0  0  0
    7.5921   -1.0896   20.8510 H   0  0  0  0  0  0  0  0  0  0  0  0
    9.0728    3.6700   23.1513 C   0  0  0  0  0  0  0  0  0  0  0  0
    9.2129    5.0482   23.1681 C   0  0  0  0  0  0  0  0  0  0  0  0
    9.9909    5.5379   23.7523 H   0  0  0  0  0  0  0  0  0  0  0  0
    9.7659    3.0794   23.7473 H   0  0  0  0  0  0  0  0  0  0  0  0
    6.3970    3.4264   21.0975 H   0  0  0  0  0  0  0  0  0  0  0  0
    6.6105    5.8702   21.1411 H   0  0  0  0  0  0  0  0  0  0  0  0
    7.5552    7.8056   20.8186 H   0  0  0  0  0  0  0  0  0  0  0  0
    8.0819    9.0425   22.0101 H   0  0  0  0  0  0  0  0  0  0  0  0
    6.6289    8.0360   22.3391 H   0  0  0  0  0  0  0  0  0  0  0  0
  1  2  1  0
  2  3  1  0
  3  4  2  0
  4  5  1  0
  5  6  2  0
  6  7  1  0
  7  8  1  0
  8  9  1  0
  9 10  2  0
 10 11  1  0
 11 12  2  0
 12 13  1  0
 13 14  1  0
 13 15  2  0
 15 16  1  0
 12 17  1  0
 11 18  1  0
 10 19  1  0
  8 20  1  0
  8 21  1  0
  7 22  1  0
 22 23  2  0
 22 24  1  0
 24 25  1  0
 25 26  2  0
 26 27  1  0
 27 28  2  0
 28 29  1  0
 29 30  2  0
 30 31  1  0
 31 32  2  0
 32 33  1  0
 33 34  2  0
 33 35  1  0
 32 36  1  0
 31 37  1  0
 30 38  1  0
 28 39  1  0
 26 40  1  0
 24 41  1  0
 24 42  1  0
  6 43  1  0
 43 44  2  0
 44 45  1  0
 43 46  1  0
  5 47  1  0
  4 48  1  0
  1 49  1  0
  1 50  1  0
  1 51  1  0
 44  3  1  0
 15  9  1  0
 34 25  1  0
 34 29  1  0
M  END
>  <cnnaffinities>  (1) 
[6.06315, 6.06278, 5.79605, 6.24951, 6.24978, 6.10983, 5.83789, 5.7652, 5.76589, 5.95762, 5.9321, 6.34088, 6.21406, 5.96038, 5.96273]

>  <score>  (1) 
6.06315

>  <index>  (1) 
1

>  <Smiles>  (1) 
C(Oc1c(c(c(N(C(c2c(c(c(c(Cl)c2[H])[H])[H])[H])([H])[H])C(=O)C(c2c(nc(c3c(c(c(c(c23)[H])[H])[H])[H])[H])[H])([H])[H])c(c1[H])[H])[H])[H])([H])([H])[H]

>  <h>  (1) 
<NA>

>  <Training>  (1) 
True

>  <Success>  (1) 
True

>  <enamine_searched>  (1) 
False

>  <enamine_id>  (1) 
nan

$$$$
