
     RDKit          3D

 70 75  0  0  0  0  0  0  0  0999 V2000
    2.5339    8.0734   29.0986 C   0  0  0  0  0  0  0  0  0  0  0  0
    3.7989    7.5367   28.8032 O   0  0  0  0  0  0  0  0  0  0  0  0
    3.9307    6.1892   28.9091 C   0  0  0  0  0  0  0  0  0  0  0  0
    2.9369    5.3118   29.3441 C   0  0  0  0  0  0  0  0  0  0  0  0
    3.2260    3.9497   29.4286 C   0  0  0  0  0  0  0  0  0  0  0  0
    4.4757    3.4634   29.0742 C   0  0  0  0  0  0  0  0  0  0  0  0
    5.4586    4.3488   28.6261 C   0  0  0  0  0  0  0  0  0  0  0  0
    6.8394    3.8890   28.2212 C   0  0  0  0  0  0  0  0  0  0  0  0
    7.0636    3.9418   26.7821 N   0  0  0  0  0  0  0  0  0  0  0  0
    6.4869    2.9741   26.0159 C   0  0  0  0  0  0  0  0  0  0  0  0
    5.8135    2.0687   26.4878 O   0  0  0  0  0  0  0  0  0  0  0  0
    6.7390    3.1122   24.5160 C   0  0  0  0  0  0  0  0  0  0  0  0
    7.8638    2.3140   24.0692 N   0  0  0  0  0  0  0  0  0  0  0  0
    7.7251    0.8695   23.9793 C   0  0  0  0  0  0  0  0  0  0  0  0
    8.3717    0.3105   22.6788 C   0  0  2  0  0  0  0  0  0  0  0  0
    7.5696    0.7578   21.4399 C   0  0  0  0  0  0  0  0  0  0  0  0
    7.5710    1.8520   20.9161 O   0  0  0  0  0  0  0  0  0  0  0  0
    6.8481   -0.3168   20.9737 N   0  0  0  0  0  0  0  0  0  0  0  0
    5.8840   -0.1673   19.9585 C   0  0  0  0  0  0  0  0  0  0  0  0
    6.0717   -0.7980   18.7568 C   0  0  0  0  0  0  0  0  0  0  0  0
    5.2603   -0.6540   17.6842 N   0  0  0  0  0  0  0  0  0  0  0  0
    4.2032    0.1095   17.8346 C   0  0  0  0  0  0  0  0  0  0  0  0
    3.8605    0.7686   19.0485 C   0  0  0  0  0  0  0  0  0  0  0  0
    2.6834    1.5507   19.1639 C   0  0  0  0  0  0  0  0  0  0  0  0
    2.3462    2.1328   20.3529 C   0  0  0  0  0  0  0  0  0  0  0  0
    3.1891    1.9928   21.4778 C   0  0  0  0  0  0  0  0  0  0  0  0
    4.3470    1.2646   21.3866 C   0  0  0  0  0  0  0  0  0  0  0  0
    4.7154    0.6307   20.1613 C   0  0  0  0  0  0  0  0  0  0  0  0
    4.9902    1.1803   22.2592 H   0  0  0  0  0  0  0  0  0  0  0  0
    2.9166    2.4705   22.4144 H   0  0  0  0  0  0  0  0  0  0  0  0
    1.4296    2.7071   20.4427 H   0  0  0  0  0  0  0  0  0  0  0  0
    2.0666    1.6839   18.2823 H   0  0  0  0  0  0  0  0  0  0  0  0
    3.5366    0.2161   16.9779 H   0  0  0  0  0  0  0  0  0  0  0  0
    6.9432   -1.4384   18.6218 H   0  0  0  0  0  0  0  0  0  0  0  0
    7.0171   -1.5283   21.7401 C   0  0  0  0  0  0  0  0  0  0  0  0
    8.2578   -1.2407   22.5958 C   0  0  2  0  0  0  0  0  0  0  0  0
    8.2495   -2.0171   23.9092 C   0  0  0  0  0  0  0  0  0  0  0  0
    7.3582   -1.7738   24.5002 H   0  0  0  0  0  0  0  0  0  0  0  0
    8.2294   -3.0953   23.7109 H   0  0  0  0  0  0  0  0  0  0  0  0
    9.1349   -1.8036   24.5189 H   0  0  0  0  0  0  0  0  0  0  0  0
    9.1166   -1.5847   22.0200 H   0  0  0  0  0  0  0  0  0  0  0  0
    7.1690   -2.3881   21.0792 H   0  0  0  0  0  0  0  0  0  0  0  0
    6.1366   -1.7395   22.3652 H   0  0  0  0  0  0  0  0  0  0  0  0
    9.7866    0.8536   22.6027 C   0  0  0  0  0  0  0  0  0  0  0  0
   10.8077    0.1493   21.9653 C   0  0  0  0  0  0  0  0  0  0  0  0
   12.1123    0.5958   22.0455 C   0  0  0  0  0  0  0  0  0  0  0  0
   13.3408   -0.4403   21.3869 Cl  0  0  0  0  0  0  0  0  0  0  0  0
   12.4257    1.8331   22.6023 C   0  0  0  0  0  0  0  0  0  0  0  0
   11.4027    2.5877   23.1379 C   0  0  0  0  0  0  0  0  0  0  0  0
   10.1001    2.0987   23.1627 C   0  0  0  0  0  0  0  0  0  0  0  0
    9.0346    2.9500   23.7745 C   0  0  0  0  0  0  0  0  0  0  0  0
    9.1958    4.1448   24.0003 O   0  0  0  0  0  0  0  0  0  0  0  0
   11.5809    3.5662   23.5660 H   0  0  0  0  0  0  0  0  0  0  0  0
   13.4444    2.1997   22.5752 H   0  0  0  0  0  0  0  0  0  0  0  0
   10.6039   -0.7241   21.3560 H   0  0  0  0  0  0  0  0  0  0  0  0
    8.2080    0.3874   24.8464 H   0  0  0  0  0  0  0  0  0  0  0  0
    6.6531    0.6413   24.0089 H   0  0  0  0  0  0  0  0  0  0  0  0
    6.9479    4.1557   24.2622 H   0  0  0  0  0  0  0  0  0  0  0  0
    5.8445    2.7848   23.9738 H   0  0  0  0  0  0  0  0  0  0  0  0
    7.8501    4.4535   26.3982 H   0  0  0  0  0  0  0  0  0  0  0  0
    7.5603    4.5424   28.7141 H   0  0  0  0  0  0  0  0  0  0  0  0
    7.0050    2.8685   28.5707 H   0  0  0  0  0  0  0  0  0  0  0  0
    5.1840    5.7029   28.5526 C   0  0  0  0  0  0  0  0  0  0  0  0
    5.9350    6.4219   28.2343 H   0  0  0  0  0  0  0  0  0  0  0  0
    4.6955    2.3992   29.1295 H   0  0  0  0  0  0  0  0  0  0  0  0
    2.4646    3.2599   29.7867 H   0  0  0  0  0  0  0  0  0  0  0  0
    1.9492    5.6664   29.6187 H   0  0  0  0  0  0  0  0  0  0  0  0
    1.7649    7.6525   28.4392 H   0  0  0  0  0  0  0  0  0  0  0  0
    2.6068    9.1468   28.9283 H   0  0  0  0  0  0  0  0  0  0  0  0
    2.2622    7.8887   30.1453 H   0  0  0  0  0  0  0  0  0  0  0  0
  1  2  1  0
  2  3  1  0
  3  4  2  0
  4  5  1  0
  5  6  2  0
  6  7  1  0
  7  8  1  0
  8  9  1  0
  9 10  1  0
 10 11  2  0
 10 12  1  0
 12 13  1  0
 13 14  1  0
 15 14  1  1
 15 16  1  0
 16 17  2  0
 16 18  1  0
 18 19  1  0
 19 20  2  0
 20 21  1  0
 21 22  2  0
 22 23  1  0
 23 24  2  0
 24 25  1  0
 25 26  2  0
 26 27  1  0
 27 28  2  0
 27 29  1  0
 26 30  1  0
 25 31  1  0
 24 32  1  0
 22 33  1  0
 20 34  1  0
 18 35  1  0
 35 36  1  0
 36 37  1  0
 37 38  1  0
 37 39  1  0
 37 40  1  0
 36 41  1  6
 35 42  1  0
 35 43  1  0
 15 44  1  0
 44 45  2  0
 45 46  1  0
 46 47  1  0
 46 48  2  0
 48 49  1  0
 49 50  2  0
 50 51  1  0
 51 52  2  0
 49 53  1  0
 48 54  1  0
 45 55  1  0
 14 56  1  0
 14 57  1  0
 12 58  1  0
 12 59  1  0
  9 60  1  0
  8 61  1  0
  8 62  1  0
  7 63  2  0
 63 64  1  0
  6 65  1  0
  5 66  1  0
  4 67  1  0
  1 68  1  0
  1 69  1  0
  1 70  1  0
 63  3  1  0
 51 13  1  0
 36 15  1  0
 50 44  1  0
 28 19  1  0
 28 23  1  0
M  END
>  <cnnaffinities>  (1) 
[6.28125]

>  <score>  (1) 
6.28125

>  <index>  (1) 
75

>  <Smiles>  (1) 
C(Oc1c(c(c(c(C(N(C(=O)C(N2C([C@@]3(C(=O)N(c4c(nc(c5c(c(c(c(c45)[H])[H])[H])[H])[H])[H])C([C@@]3(C([H])([H])[H])[H])([H])[H])c3c(c(Cl)c(c(c3C2=O)[H])[H])[H])([H])[H])([H])[H])[H])([H])[H])c1[H])[H])[H])[H])([H])([H])[H]

>  <h>  (1) 
<NA>

>  <Training>  (1) 
True

>  <Success>  (1) 
True

>  <enamine_searched>  (1) 
False

>  <enamine_id>  (1) 
nan

$$$$
