
     RDKit          3D

 67 73  0  0  0  0  0  0  0  0999 V2000
    7.0764    4.4742   29.1749 C   0  0  0  0  0  0  0  0  0  0  0  0
    6.6725    3.7380   27.9472 C   0  0  0  0  0  0  0  0  0  0  0  0
    5.8488    2.7505   27.8531 N   0  0  0  0  0  0  0  0  0  0  0  0
    5.7900    2.4188   26.5040 N   0  0  0  0  0  0  0  0  0  0  0  0
    6.5898    3.2197   25.8905 C   0  0  0  0  0  0  0  0  0  0  0  0
    6.8328    3.2836   24.4089 C   0  0  0  0  0  0  0  0  0  0  0  0
    7.9197    2.4515   23.9308 N   0  0  0  0  0  0  0  0  0  0  0  0
    7.7683    1.0005   23.9065 C   0  0  0  0  0  0  0  0  0  0  0  0
    8.4162    0.3718   22.6322 C   0  0  2  0  0  0  0  0  0  0  0  0
    7.6287    0.7840   21.3687 C   0  0  0  0  0  0  0  0  0  0  0  0
    7.6544    1.8441   20.7783 O   0  0  0  0  0  0  0  0  0  0  0  0
    6.8498   -0.2814   20.9804 N   0  0  0  0  0  0  0  0  0  0  0  0
    5.8923   -0.1490   19.9581 C   0  0  0  0  0  0  0  0  0  0  0  0
    6.0830   -0.7855   18.7594 C   0  0  0  0  0  0  0  0  0  0  0  0
    5.2724   -0.6504   17.6838 N   0  0  0  0  0  0  0  0  0  0  0  0
    4.2150    0.1137   17.8343 C   0  0  0  0  0  0  0  0  0  0  0  0
    3.8725    0.7833   19.0439 C   0  0  0  0  0  0  0  0  0  0  0  0
    2.6992    1.5722   19.1546 C   0  0  0  0  0  0  0  0  0  0  0  0
    2.3585    2.1495   20.3458 C   0  0  0  0  0  0  0  0  0  0  0  0
    3.1949    2.0035   21.4743 C   0  0  0  0  0  0  0  0  0  0  0  0
    4.3564    1.2798   21.3846 C   0  0  0  0  0  0  0  0  0  0  0  0
    4.7233    0.6465   20.1585 C   0  0  0  0  0  0  0  0  0  0  0  0
    4.9989    1.1934   22.2580 H   0  0  0  0  0  0  0  0  0  0  0  0
    2.9147    2.4735   22.4124 H   0  0  0  0  0  0  0  0  0  0  0  0
    1.4383    2.7181   20.4350 H   0  0  0  0  0  0  0  0  0  0  0  0
    2.0887    1.7084   18.2686 H   0  0  0  0  0  0  0  0  0  0  0  0
    3.5480    0.2093   16.9786 H   0  0  0  0  0  0  0  0  0  0  0  0
    6.9618   -1.4170   18.6325 H   0  0  0  0  0  0  0  0  0  0  0  0
    6.9872   -1.4645   21.7899 C   0  0  0  0  0  0  0  0  0  0  0  0
    8.2726   -1.1779   22.5740 C   0  0  2  0  0  0  0  0  0  0  0  0
    8.3552   -1.9372   23.9071 C   0  0  0  0  0  0  0  0  0  0  0  0
    8.4382   -3.3790   23.7610 N   0  0  0  0  0  0  0  0  0  0  0  0
    7.3826   -4.2205   23.5842 C   0  0  0  0  0  0  0  0  0  0  0  0
    6.0494   -3.9311   23.9487 C   0  0  0  0  0  0  0  0  0  0  0  0
    5.1037   -4.8962   23.6529 C   0  0  0  0  0  0  0  0  0  0  0  0
    5.3955   -6.0560   23.0525 N   0  0  0  0  0  0  0  0  0  0  0  0
    6.6834   -6.2286   22.7847 C   0  0  0  0  0  0  0  0  0  0  0  0
    7.6932   -5.4072   23.0326 N   0  0  0  0  0  0  0  0  0  0  0  0
    6.9509   -7.1623   22.2896 H   0  0  0  0  0  0  0  0  0  0  0  0
    4.0509   -4.7339   23.8979 H   0  0  0  0  0  0  0  0  0  0  0  0
    5.7559   -3.0006   24.4281 H   0  0  0  0  0  0  0  0  0  0  0  0
    9.2945   -3.7745   23.3914 H   0  0  0  0  0  0  0  0  0  0  0  0
    7.4783   -1.7060   24.5212 H   0  0  0  0  0  0  0  0  0  0  0  0
    9.2352   -1.6095   24.4718 H   0  0  0  0  0  0  0  0  0  0  0  0
    9.0845   -1.5353   21.9370 H   0  0  0  0  0  0  0  0  0  0  0  0
    7.0709   -2.3556   21.1574 H   0  0  0  0  0  0  0  0  0  0  0  0
    6.1155   -1.5983   22.4488 H   0  0  0  0  0  0  0  0  0  0  0  0
    9.8441    0.8707   22.5622 C   0  0  0  0  0  0  0  0  0  0  0  0
   10.8784    0.1080   22.0115 C   0  0  0  0  0  0  0  0  0  0  0  0
   12.1792    0.5656   22.0800 C   0  0  0  0  0  0  0  0  0  0  0  0
   13.4375   -0.4743   21.5003 Cl  0  0  0  0  0  0  0  0  0  0  0  0
   12.4830    1.8382   22.5530 C   0  0  0  0  0  0  0  0  0  0  0  0
   11.4506    2.6474   22.9856 C   0  0  0  0  0  0  0  0  0  0  0  0
   10.1510    2.1564   23.0285 C   0  0  0  0  0  0  0  0  0  0  0  0
    9.0930    3.0626   23.5656 C   0  0  0  0  0  0  0  0  0  0  0  0
    9.2701    4.2688   23.6722 O   0  0  0  0  0  0  0  0  0  0  0  0
   11.6135    3.6708   23.2963 H   0  0  0  0  0  0  0  0  0  0  0  0
   13.5087    2.1822   22.5396 H   0  0  0  0  0  0  0  0  0  0  0  0
   10.7106   -0.8234   21.4809 H   0  0  0  0  0  0  0  0  0  0  0  0
    6.6976    0.7645   23.9647 H   0  0  0  0  0  0  0  0  0  0  0  0
    8.2606    0.5632   24.7882 H   0  0  0  0  0  0  0  0  0  0  0  0
    5.8988    2.9545   23.9402 H   0  0  0  0  0  0  0  0  0  0  0  0
    7.0422    4.3140   24.1000 H   0  0  0  0  0  0  0  0  0  0  0  0
    7.1936    4.0895   26.7426 O   0  0  0  0  0  0  0  0  0  0  0  0
    6.1930    4.6708   29.7846 H   0  0  0  0  0  0  0  0  0  0  0  0
    7.5772    5.4144   28.9332 H   0  0  0  0  0  0  0  0  0  0  0  0
    7.7434    3.8459   29.7736 H   0  0  0  0  0  0  0  0  0  0  0  0
  1  2  1  0
  2  3  2  0
  3  4  1  0
  4  5  2  0
  5  6  1  0
  6  7  1  0
  7  8  1  0
  9  8  1  1
  9 10  1  0
 10 11  2  0
 10 12  1  0
 12 13  1  0
 13 14  2  0
 14 15  1  0
 15 16  2  0
 16 17  1  0
 17 18  2  0
 18 19  1  0
 19 20  2  0
 20 21  1  0
 21 22  2  0
 21 23  1  0
 20 24  1  0
 19 25  1  0
 18 26  1  0
 16 27  1  0
 14 28  1  0
 12 29  1  0
 29 30  1  0
 30 31  1  0
 31 32  1  0
 32 33  1  0
 33 34  2  0
 34 35  1  0
 35 36  2  0
 36 37  1  0
 37 38  2  0
 37 39  1  0
 35 40  1  0
 34 41  1  0
 32 42  1  0
 31 43  1  0
 31 44  1  0
 30 45  1  6
 29 46  1  0
 29 47  1  0
  9 48  1  0
 48 49  2  0
 49 50  1  0
 50 51  1  0
 50 52  2  0
 52 53  1  0
 53 54  2  0
 54 55  1  0
 55 56  2  0
 53 57  1  0
 52 58  1  0
 49 59  1  0
  8 60  1  0
  8 61  1  0
  6 62  1  0
  6 63  1  0
  5 64  1  0
  1 65  1  0
  1 66  1  0
  1 67  1  0
 64  2  1  0
 55  7  1  0
 30  9  1  0
 38 33  1  0
 54 48  1  0
 22 13  1  0
 22 17  1  0
M  END
>  <cnnaffinities>  (1) 
[6.81634, 6.81537]

>  <score>  (1) 
6.81634

>  <index>  (1) 
51

>  <Smiles>  (1) 
C(c1nnc(C(N2C([C@@]3(C(=O)N(c4c(nc(c5c(c(c(c(c45)[H])[H])[H])[H])[H])[H])C([C@@]3(C(N(c3c(c(nc(n3)[H])[H])[H])[H])([H])[H])[H])([H])[H])c3c(c(Cl)c(c(c3C2=O)[H])[H])[H])([H])[H])([H])[H])o1)([H])([H])[H]

>  <h>  (1) 
<NA>

>  <Training>  (1) 
True

>  <Success>  (1) 
True

>  <enamine_searched>  (1) 
False

>  <enamine_id>  (1) 
nan

$$$$
