
     RDKit          3D

 67 72  0  0  0  0  0  0  0  0999 V2000
    6.2413    3.9822   21.8548 C   0  0  0  0  0  0  0  0  0  0  0  0
    7.6857    4.1857   21.6296 N   0  0  0  0  0  0  0  0  0  0  0  0
    8.4043    4.6765   22.8361 C   0  0  0  0  0  0  0  0  0  0  0  0
    8.5770    3.5695   23.8619 C   0  0  0  0  0  0  0  0  0  0  0  0
    9.1460    2.3791   23.2675 N   0  0  0  0  0  0  0  0  0  0  0  0
    8.4515    1.1407   23.5086 C   0  0  0  0  0  0  0  0  0  0  0  0
    8.7178    0.1191   22.3881 C   0  0  2  0  0  0  0  0  0  0  0  0
    7.8827    0.6028   21.1884 C   0  0  0  0  0  0  0  0  0  0  0  0
    8.0217    1.6691   20.6060 O   0  0  0  0  0  0  0  0  0  0  0  0
    6.8823   -0.3092   20.9579 N   0  0  0  0  0  0  0  0  0  0  0  0
    5.9250   -0.1313   19.9267 C   0  0  0  0  0  0  0  0  0  0  0  0
    6.1382   -0.7258   18.7115 C   0  0  0  0  0  0  0  0  0  0  0  0
    5.3049   -0.6039   17.6522 N   0  0  0  0  0  0  0  0  0  0  0  0
    4.2272    0.1257   17.8153 C   0  0  0  0  0  0  0  0  0  0  0  0
    3.8767    0.7809   19.0316 C   0  0  0  0  0  0  0  0  0  0  0  0
    2.7101    1.5853   19.1550 C   0  0  0  0  0  0  0  0  0  0  0  0
    2.3948    2.1803   20.3454 C   0  0  0  0  0  0  0  0  0  0  0  0
    3.2334    2.0132   21.4698 C   0  0  0  0  0  0  0  0  0  0  0  0
    4.3746    1.2508   21.3704 C   0  0  0  0  0  0  0  0  0  0  0  0
    4.7371    0.6295   20.1413 C   0  0  0  0  0  0  0  0  0  0  0  0
    5.0212    1.1418   22.2382 H   0  0  0  0  0  0  0  0  0  0  0  0
    2.9839    2.5037   22.4063 H   0  0  0  0  0  0  0  0  0  0  0  0
    1.5005    2.7924   20.4321 H   0  0  0  0  0  0  0  0  0  0  0  0
    2.0887    1.7287   18.2771 H   0  0  0  0  0  0  0  0  0  0  0  0
    3.5575    0.2190   16.9603 H   0  0  0  0  0  0  0  0  0  0  0  0
    7.0276   -1.3333   18.5563 H   0  0  0  0  0  0  0  0  0  0  0  0
    6.6917   -1.2328   22.0582 C   0  0  0  0  0  0  0  0  0  0  0  0
    8.0704   -1.2538   22.7172 C   0  0  2  0  0  0  0  0  0  0  0  0
    8.0165   -1.6153   24.2068 C   0  0  0  0  0  0  0  0  0  0  0  0
    7.5751   -2.9704   24.4623 N   0  0  0  0  0  0  0  0  0  0  0  0
    6.3052   -3.3341   24.7156 C   0  0  0  0  0  0  0  0  0  0  0  0
    6.0517   -4.6622   24.7581 N   0  0  0  0  0  0  0  0  0  0  0  0
    4.7908   -4.9563   25.0240 C   0  0  0  0  0  0  0  0  0  0  0  0
    3.7931   -4.0974   25.2531 N   0  0  0  0  0  0  0  0  0  0  0  0
    4.1710   -2.8238   25.1855 C   0  0  0  0  0  0  0  0  0  0  0  0
    5.3886   -2.3678   24.9166 N   0  0  0  0  0  0  0  0  0  0  0  0
    3.3964   -2.0816   25.3685 H   0  0  0  0  0  0  0  0  0  0  0  0
    4.5387   -6.0156   25.0638 H   0  0  0  0  0  0  0  0  0  0  0  0
    8.2068   -3.7347   24.2973 H   0  0  0  0  0  0  0  0  0  0  0  0
    7.3234   -0.9529   24.7298 H   0  0  0  0  0  0  0  0  0  0  0  0
    9.0122   -1.4972   24.6463 H   0  0  0  0  0  0  0  0  0  0  0  0
    8.6566   -2.0238   22.2157 H   0  0  0  0  0  0  0  0  0  0  0  0
    6.3697   -2.2173   21.7023 H   0  0  0  0  0  0  0  0  0  0  0  0
    5.9300   -0.8720   22.7684 H   0  0  0  0  0  0  0  0  0  0  0  0
   10.2102    0.0623   22.0933 C   0  0  0  0  0  0  0  0  0  0  0  0
   10.7905   -1.0415   21.4493 C   0  0  0  0  0  0  0  0  0  0  0  0
   12.1581   -1.0876   21.2489 C   0  0  0  0  0  0  0  0  0  0  0  0
   12.8444   -2.3756   20.3048 Cl  0  0  0  0  0  0  0  0  0  0  0  0
   12.9967   -0.0630   21.6839 C   0  0  0  0  0  0  0  0  0  0  0  0
   12.4293    1.0603   22.2459 C   0  0  0  0  0  0  0  0  0  0  0  0
   11.0465    1.1363   22.4268 C   0  0  0  0  0  0  0  0  0  0  0  0
   10.4839    2.4127   22.9669 C   0  0  0  0  0  0  0  0  0  0  0  0
   11.1637    3.4178   23.1223 O   0  0  0  0  0  0  0  0  0  0  0  0
   13.0407    1.9052   22.5434 H   0  0  0  0  0  0  0  0  0  0  0  0
   14.0655   -0.1398   21.5284 H   0  0  0  0  0  0  0  0  0  0  0  0
   10.1877   -1.8556   21.0590 H   0  0  0  0  0  0  0  0  0  0  0  0
    7.3726    1.3457   23.5118 H   0  0  0  0  0  0  0  0  0  0  0  0
    8.7377    0.7358   24.4867 H   0  0  0  0  0  0  0  0  0  0  0  0
    7.6288    3.3023   24.3436 H   0  0  0  0  0  0  0  0  0  0  0  0
    9.2613    3.9092   24.6204 H   0  0  0  0  0  0  0  0  0  0  0  0
    7.8645    5.5146   23.2906 H   0  0  0  0  0  0  0  0  0  0  0  0
    9.3890    5.0342   22.5323 H   0  0  0  0  0  0  0  0  0  0  0  0
    7.8459    4.8837   20.8799 H   0  0  0  0  0  0  0  0  0  0  0  0
    8.1235    3.3029   21.3024 H   0  0  0  0  0  0  0  0  0  0  0  0
    6.0714    3.1194   22.5061 H   0  0  0  0  0  0  0  0  0  0  0  0
    5.7765    4.8395   22.3546 H   0  0  0  0  0  0  0  0  0  0  0  0
    5.7317    3.7839   20.9078 H   0  0  0  0  0  0  0  0  0  0  0  0
  1  2  1  0
  2  3  1  0
  3  4  1  0
  4  5  1  0
  5  6  1  0
  7  6  1  1
  7  8  1  0
  8  9  2  0
  8 10  1  0
 10 11  1  0
 11 12  2  0
 12 13  1  0
 13 14  2  0
 14 15  1  0
 15 16  2  0
 16 17  1  0
 17 18  2  0
 18 19  1  0
 19 20  2  0
 19 21  1  0
 18 22  1  0
 17 23  1  0
 16 24  1  0
 14 25  1  0
 12 26  1  0
 10 27  1  0
 27 28  1  0
 28 29  1  0
 29 30  1  0
 30 31  1  0
 31 32  2  0
 32 33  1  0
 33 34  2  0
 34 35  1  0
 35 36  2  0
 35 37  1  0
 33 38  1  0
 30 39  1  0
 29 40  1  0
 29 41  1  0
 28 42  1  6
 27 43  1  0
 27 44  1  0
  7 45  1  0
 45 46  2  0
 46 47  1  0
 47 48  1  0
 47 49  2  0
 49 50  1  0
 50 51  2  0
 51 52  1  0
 52 53  2  0
 50 54  1  0
 49 55  1  0
 46 56  1  0
  6 57  1  0
  6 58  1  0
  4 59  1  0
  4 60  1  0
  3 61  1  0
  3 62  1  0
  2 63  1  0
  2 64  1  0
  1 65  1  0
  1 66  1  0
  1 67  1  0
 52  5  1  0
 28  7  1  0
 36 31  1  0
 51 45  1  0
 20 11  1  0
 20 15  1  0
M  CHG  1   2   1
M  END
>  <cnnaffinities>  (1) 
[6.72514]

>  <score>  (1) 
6.72514

>  <index>  (1) 
29

>  <Smiles>  (1) 
C([N+](C(C(N1C([C@@]2(C(=O)N(c3c(nc(c4c(c(c(c(c34)[H])[H])[H])[H])[H])[H])C([C@@]2(C(N(c2nc(nc(n2)[H])[H])[H])([H])[H])[H])([H])[H])c2c(c(Cl)c(c(c2C1=O)[H])[H])[H])([H])[H])([H])[H])([H])[H])([H])[H])([H])([H])[H]

>  <h>  (1) 
<NA>

>  <Training>  (1) 
True

>  <Success>  (1) 
True

>  <enamine_searched>  (1) 
False

>  <enamine_id>  (1) 
nan

$$$$
