
     RDKit          3D

 47 50  0  0  0  0  0  0  0  0999 V2000
    6.9056    3.8971   24.5227 C   0  0  0  0  0  0  0  0  0  0  0  0
    8.1936    3.1541   24.1890 C   0  0  1  0  0  0  0  0  0  0  0  0
    8.2063    1.7608   24.8229 C   0  0  0  0  0  0  0  0  0  0  0  0
    7.7450    0.7688   23.7573 C   0  0  2  0  0  0  0  0  0  0  0  0
    8.5589   -0.5174   23.7902 C   0  0  0  0  0  0  0  0  0  0  0  0
    7.9973   -1.6812   24.3095 C   0  0  0  0  0  0  0  0  0  0  0  0
    8.7265   -2.8668   24.3539 C   0  0  0  0  0  0  0  0  0  0  0  0
   10.0359   -2.8980   23.8847 C   0  0  0  0  0  0  0  0  0  0  0  0
   10.6162   -1.7343   23.3883 C   0  0  0  0  0  0  0  0  0  0  0  0
    9.8871   -0.5507   23.3516 C   0  0  0  0  0  0  0  0  0  0  0  0
   10.3575    0.3520   22.9692 H   0  0  0  0  0  0  0  0  0  0  0  0
   11.6417   -1.7489   23.0282 H   0  0  0  0  0  0  0  0  0  0  0  0
   10.6042   -3.8232   23.9100 H   0  0  0  0  0  0  0  0  0  0  0  0
    8.2644   -3.7675   24.7469 H   0  0  0  0  0  0  0  0  0  0  0  0
    6.9747   -1.6617   24.6845 H   0  0  0  0  0  0  0  0  0  0  0  0
    7.8832    1.5040   22.5155 N   0  0  0  0  0  0  0  0  0  0  0  0
    7.6809    0.9911   21.2631 C   0  0  0  0  0  0  0  0  0  0  0  0
    8.1083    1.5610   20.2799 O   0  0  0  0  0  0  0  0  0  0  0  0
    6.8795   -0.3107   21.0799 C   0  0  0  0  0  0  0  0  0  0  0  0
    5.8606   -0.1802   19.9726 C   0  0  0  0  0  0  0  0  0  0  0  0
    6.0373   -0.8014   18.7656 C   0  0  0  0  0  0  0  0  0  0  0  0
    5.2204   -0.6736   17.6842 N   0  0  0  0  0  0  0  0  0  0  0  0
    4.1615    0.0827   17.8289 C   0  0  0  0  0  0  0  0  0  0  0  0
    3.8192    0.7449   19.0390 C   0  0  0  0  0  0  0  0  0  0  0  0
    2.6379    1.5139   19.1708 C   0  0  0  0  0  0  0  0  0  0  0  0
    2.3339    2.1491   20.3418 C   0  0  0  0  0  0  0  0  0  0  0  0
    3.2176    2.0523   21.4390 C   0  0  0  0  0  0  0  0  0  0  0  0
    4.3690    1.3116   21.3413 C   0  0  0  0  0  0  0  0  0  0  0  0
    4.6984    0.6253   20.1434 C   0  0  0  0  0  0  0  0  0  0  0  0
    5.0387    1.2583   22.1960 H   0  0  0  0  0  0  0  0  0  0  0  0
    2.9772    2.5759   22.3593 H   0  0  0  0  0  0  0  0  0  0  0  0
    1.4248    2.7426   20.4284 H   0  0  0  0  0  0  0  0  0  0  0  0
    1.9810    1.6098   18.3128 H   0  0  0  0  0  0  0  0  0  0  0  0
    3.5049    0.1997   16.9606 H   0  0  0  0  0  0  0  0  0  0  0  0
    6.8811   -1.4750   18.6134 H   0  0  0  0  0  0  0  0  0  0  0  0
    7.6000   -1.0875   20.7937 H   0  0  0  0  0  0  0  0  0  0  0  0
    6.3983   -0.6283   22.0088 H   0  0  0  0  0  0  0  0  0  0  0  0
    8.3566    2.8760   22.6910 C   0  0  0  0  0  0  0  0  0  0  0  0
    9.3967    2.9976   22.3553 H   0  0  0  0  0  0  0  0  0  0  0  0
    7.7526    3.5552   22.0838 H   0  0  0  0  0  0  0  0  0  0  0  0
    6.6888    0.5297   23.9181 H   0  0  0  0  0  0  0  0  0  0  0  0
    7.6180    1.7054   25.7412 H   0  0  0  0  0  0  0  0  0  0  0  0
    9.2082    1.4639   25.0879 H   0  0  0  0  0  0  0  0  0  0  0  0
    9.0314    3.7586   24.5428 H   0  0  0  0  0  0  0  0  0  0  0  0
    6.8044    4.0440   25.6045 H   0  0  0  0  0  0  0  0  0  0  0  0
    6.8765    4.8794   24.0421 H   0  0  0  0  0  0  0  0  0  0  0  0
    6.0352    3.3243   24.1873 H   0  0  0  0  0  0  0  0  0  0  0  0
  1  2  1  0
  2  3  1  0
  3  4  1  0
  4  5  1  0
  5  6  2  0
  6  7  1  0
  7  8  2  0
  8  9  1  0
  9 10  2  0
 10 11  1  0
  9 12  1  0
  8 13  1  0
  7 14  1  0
  6 15  1  0
  4 16  1  0
 16 17  1  0
 17 18  2  0
 17 19  1  0
 19 20  1  0
 20 21  2  0
 21 22  1  0
 22 23  2  0
 23 24  1  0
 24 25  2  0
 25 26  1  0
 26 27  2  0
 27 28  1  0
 28 29  2  0
 28 30  1  0
 27 31  1  0
 26 32  1  0
 25 33  1  0
 23 34  1  0
 21 35  1  0
 19 36  1  0
 19 37  1  0
 16 38  1  0
 38 39  1  0
 38 40  1  0
  4 41  1  1
  3 42  1  0
  3 43  1  0
  2 44  1  1
  1 45  1  0
  1 46  1  0
  1 47  1  0
 38  2  1  0
 10  5  1  0
 29 20  1  0
 29 24  1  0
M  END
>  <cnnaffinities>  (1) 
[5.55057, 5.55055, 5.49377, 5.4936, 5.59562, 5.59591]

>  <score>  (1) 
5.55057

>  <index>  (1) 
16

>  <Smiles>  (1) 
C([C@]1(C([C@](c2c(c(c(c(c2[H])[H])[H])[H])[H])(N(C(=O)C(c2c(nc(c3c(c(c(c(c23)[H])[H])[H])[H])[H])[H])([H])[H])C1([H])[H])[H])([H])[H])[H])([H])([H])[H]

>  <h>  (1) 
<NA>

>  <Training>  (1) 
True

>  <Success>  (1) 
True

>  <enamine_searched>  (1) 
False

>  <enamine_id>  (1) 
nan

$$$$
