
     RDKit          3D

 57 62  0  0  0  0  0  0  0  0999 V2000
    4.7914    4.8847   20.4961 C   0  0  0  0  0  0  0  0  0  0  0  0
    5.9397    4.7418   21.4376 C   0  0  0  0  0  0  0  0  0  0  0  0
    6.1538    3.9567   22.4564 N   0  0  0  0  0  0  0  0  0  0  0  0
    7.3922    4.3770   22.8948 C   0  0  0  0  0  0  0  0  0  0  0  0
    8.1060    3.7562   24.0615 C   0  0  0  0  0  0  0  0  0  0  0  0
    8.8364    2.5701   23.6524 N   0  0  0  0  0  0  0  0  0  0  0  0
    8.2464    1.2574   23.8274 C   0  0  0  0  0  0  0  0  0  0  0  0
    8.4672    0.3214   22.6111 C   0  0  2  0  0  0  0  0  0  0  0  0
    7.6424    0.7605   21.3851 C   0  0  0  0  0  0  0  0  0  0  0  0
    7.7011    1.8208   20.8051 O   0  0  0  0  0  0  0  0  0  0  0  0
    6.8106   -0.2795   21.0274 N   0  0  0  0  0  0  0  0  0  0  0  0
    5.8791   -0.1479   19.9765 C   0  0  0  0  0  0  0  0  0  0  0  0
    6.0765   -0.7857   18.7797 C   0  0  0  0  0  0  0  0  0  0  0  0
    5.2709   -0.6504   17.6989 N   0  0  0  0  0  0  0  0  0  0  0  0
    4.2108    0.1141   17.8345 C   0  0  0  0  0  0  0  0  0  0  0  0
    3.8606    0.7854   19.0414 C   0  0  0  0  0  0  0  0  0  0  0  0
    2.6850    1.5715   19.1592 C   0  0  0  0  0  0  0  0  0  0  0  0
    2.3446    2.1491   20.3511 C   0  0  0  0  0  0  0  0  0  0  0  0
    3.1913    2.0168   21.4715 C   0  0  0  0  0  0  0  0  0  0  0  0
    4.3527    1.2930   21.3792 C   0  0  0  0  0  0  0  0  0  0  0  0
    4.7134    0.6529   20.1599 C   0  0  0  0  0  0  0  0  0  0  0  0
    5.0004    1.2170   22.2472 H   0  0  0  0  0  0  0  0  0  0  0  0
    2.9324    2.5140   22.4031 H   0  0  0  0  0  0  0  0  0  0  0  0
    1.4225    2.7150   20.4423 H   0  0  0  0  0  0  0  0  0  0  0  0
    2.0680    1.7081   18.2796 H   0  0  0  0  0  0  0  0  0  0  0  0
    3.5508    0.2180   16.9709 H   0  0  0  0  0  0  0  0  0  0  0  0
    6.9482   -1.4253   18.6450 H   0  0  0  0  0  0  0  0  0  0  0  0
    7.1829   -1.5444   21.6135 C   0  0  0  0  0  0  0  0  0  0  0  0
    7.9690   -1.1417   22.8788 C   0  0  2  0  0  0  0  0  0  0  0  0
    7.1567   -1.3708   24.1570 C   0  0  0  0  0  0  0  0  0  0  0  0
    6.8911   -2.4299   24.2359 H   0  0  0  0  0  0  0  0  0  0  0  0
    7.7509   -1.1264   25.0415 H   0  0  0  0  0  0  0  0  0  0  0  0
    6.2319   -0.7863   24.1849 H   0  0  0  0  0  0  0  0  0  0  0  0
    8.8424   -1.7875   22.9914 H   0  0  0  0  0  0  0  0  0  0  0  0
    6.2838   -2.1284   21.8325 H   0  0  0  0  0  0  0  0  0  0  0  0
    7.8081   -2.1422   20.9335 H   0  0  0  0  0  0  0  0  0  0  0  0
    9.9492    0.3932   22.2538 C   0  0  0  0  0  0  0  0  0  0  0  0
   10.6050   -0.6970   21.6707 C   0  0  0  0  0  0  0  0  0  0  0  0
   11.9790   -0.6621   21.5217 C   0  0  0  0  0  0  0  0  0  0  0  0
   12.6040   -1.7916   21.1519 F   0  0  0  0  0  0  0  0  0  0  0  0
   12.7393    0.4807   21.7545 C   0  0  0  0  0  0  0  0  0  0  0  0
   12.0685    1.5940   22.2234 C   0  0  0  0  0  0  0  0  0  0  0  0
   10.7011    1.5469   22.4923 C   0  0  0  0  0  0  0  0  0  0  0  0
   10.0782    2.7547   23.1061 C   0  0  0  0  0  0  0  0  0  0  0  0
   10.6726    3.8202   23.1632 O   0  0  0  0  0  0  0  0  0  0  0  0
   12.5796    2.5373   22.3658 H   0  0  0  0  0  0  0  0  0  0  0  0
   13.8154    0.4719   21.6206 H   0  0  0  0  0  0  0  0  0  0  0  0
   10.0700   -1.5913   21.3600 H   0  0  0  0  0  0  0  0  0  0  0  0
    7.1816    1.3942   24.0266 H   0  0  0  0  0  0  0  0  0  0  0  0
    8.6923    0.7827   24.7081 H   0  0  0  0  0  0  0  0  0  0  0  0
    8.8172    4.4678   24.4885 H   0  0  0  0  0  0  0  0  0  0  0  0
    7.3738    3.4993   24.8337 H   0  0  0  0  0  0  0  0  0  0  0  0
    7.8972    5.3610   22.2129 N   0  0  0  0  0  0  0  0  0  0  0  0
    6.9493    5.6057   21.2383 O   0  0  0  0  0  0  0  0  0  0  0  0
    4.9401    5.8353   19.9898 H   0  0  0  0  0  0  0  0  0  0  0  0
    3.8295    4.9196   21.0129 H   0  0  0  0  0  0  0  0  0  0  0  0
    4.7567    4.0596   19.7771 H   0  0  0  0  0  0  0  0  0  0  0  0
  1  2  1  0
  2  3  2  0
  3  4  1  0
  4  5  1  0
  5  6  1  0
  6  7  1  0
  8  7  1  1
  8  9  1  0
  9 10  2  0
  9 11  1  0
 11 12  1  0
 12 13  2  0
 13 14  1  0
 14 15  2  0
 15 16  1  0
 16 17  2  0
 17 18  1  0
 18 19  2  0
 19 20  1  0
 20 21  2  0
 20 22  1  0
 19 23  1  0
 18 24  1  0
 17 25  1  0
 15 26  1  0
 13 27  1  0
 11 28  1  0
 28 29  1  0
 29 30  1  0
 30 31  1  0
 30 32  1  0
 30 33  1  0
 29 34  1  1
 28 35  1  0
 28 36  1  0
  8 37  1  0
 37 38  2  0
 38 39  1  0
 39 40  1  0
 39 41  2  0
 41 42  1  0
 42 43  2  0
 43 44  1  0
 44 45  2  0
 42 46  1  0
 41 47  1  0
 38 48  1  0
  7 49  1  0
  7 50  1  0
  5 51  1  0
  5 52  1  0
  4 53  2  0
 53 54  1  0
  1 55  1  0
  1 56  1  0
  1 57  1  0
 54  2  1  0
 44  6  1  0
 29  8  1  0
 43 37  1  0
 21 12  1  0
 21 16  1  0
M  END
>  <cnnaffinities>  (1) 
[6.17938, 6.15326, 6.1755, 6.15245, 6.21956]

>  <score>  (1) 
6.17938

>  <index>  (1) 
68

>  <Smiles>  (1) 
C(c1nc(C(N2C([C@@]3(C(=O)N(c4c(nc(c5c(c(c(c(c45)[H])[H])[H])[H])[H])[H])C([C@@]3(C([H])([H])[H])[H])([H])[H])c3c(c(F)c(c(c3C2=O)[H])[H])[H])([H])[H])([H])[H])no1)([H])([H])[H]

>  <h>  (1) 
<NA>

>  <Training>  (1) 
True

>  <Success>  (1) 
True

>  <enamine_searched>  (1) 
False

>  <enamine_id>  (1) 
nan

$$$$
