
     RDKit          3D

 38 40  0  0  0  0  0  0  0  0999 V2000
    5.3903   -1.9741   21.9890 O   0  0  0  0  0  0  0  0  0  0  0  0
    6.4305   -1.3578   22.1339 C   0  0  0  0  0  0  0  0  0  0  0  0
    6.8862   -0.3430   21.0657 C   0  0  0  0  0  0  0  0  0  0  0  0
    5.8665   -0.1760   19.9704 C   0  0  0  0  0  0  0  0  0  0  0  0
    6.0312   -0.8096   18.7689 C   0  0  0  0  0  0  0  0  0  0  0  0
    5.2170   -0.6801   17.6879 N   0  0  0  0  0  0  0  0  0  0  0  0
    4.1618    0.0836   17.8288 C   0  0  0  0  0  0  0  0  0  0  0  0
    3.8184    0.7408   19.0418 C   0  0  0  0  0  0  0  0  0  0  0  0
    2.6321    1.5043   19.1729 C   0  0  0  0  0  0  0  0  0  0  0  0
    2.3196    2.1245   20.3516 C   0  0  0  0  0  0  0  0  0  0  0  0
    3.1959    2.0158   21.4526 C   0  0  0  0  0  0  0  0  0  0  0  0
    4.3541    1.2824   21.3533 C   0  0  0  0  0  0  0  0  0  0  0  0
    4.6942    0.6169   20.1462 C   0  0  0  0  0  0  0  0  0  0  0  0
    5.0141    1.2072   22.2105 H   0  0  0  0  0  0  0  0  0  0  0  0
    2.9470    2.5243   22.3792 H   0  0  0  0  0  0  0  0  0  0  0  0
    1.4065    2.7110   20.4403 H   0  0  0  0  0  0  0  0  0  0  0  0
    1.9783    1.6048   18.3149 H   0  0  0  0  0  0  0  0  0  0  0  0
    3.5063    0.2004   16.9610 H   0  0  0  0  0  0  0  0  0  0  0  0
    6.8708   -1.4863   18.6177 H   0  0  0  0  0  0  0  0  0  0  0  0
    7.8320   -0.6907   20.6206 H   0  0  0  0  0  0  0  0  0  0  0  0
    7.1024    0.6282   21.5332 H   0  0  0  0  0  0  0  0  0  0  0  0
    7.2136   -1.5281   23.2605 N   0  0  0  0  0  0  0  0  0  0  0  0
    6.7824   -2.5788   24.1917 C   0  0  0  0  0  0  0  0  0  0  0  0
    7.1292   -3.9880   23.7576 C   0  0  0  0  0  0  0  0  0  0  0  0
    8.3769   -4.3858   23.5263 C   0  0  0  0  0  0  0  0  0  0  0  0
    9.5928   -3.5057   23.7057 C   0  0  0  0  0  0  0  0  0  0  0  0
    9.5947   -2.2317   22.8458 C   0  0  0  0  0  0  0  0  0  0  0  0
    8.6217   -1.1542   23.3283 C   0  0  0  0  0  0  0  0  0  0  0  0
    8.8454   -0.9353   24.3772 H   0  0  0  0  0  0  0  0  0  0  0  0
    8.7746   -0.2205   22.7822 H   0  0  0  0  0  0  0  0  0  0  0  0
    9.3523   -2.4978   21.8118 H   0  0  0  0  0  0  0  0  0  0  0  0
   10.6110   -1.8132   22.8245 H   0  0  0  0  0  0  0  0  0  0  0  0
    9.6814   -3.2145   24.7620 H   0  0  0  0  0  0  0  0  0  0  0  0
   10.4969   -4.0778   23.4847 H   0  0  0  0  0  0  0  0  0  0  0  0
    8.5282   -5.3946   23.1490 H   0  0  0  0  0  0  0  0  0  0  0  0
    6.3047   -4.6834   23.5986 H   0  0  0  0  0  0  0  0  0  0  0  0
    7.2655   -2.3702   25.1520 H   0  0  0  0  0  0  0  0  0  0  0  0
    5.7071   -2.4853   24.3469 H   0  0  0  0  0  0  0  0  0  0  0  0
  1  2  2  0
  2  3  1  0
  3  4  1  0
  4  5  2  0
  5  6  1  0
  6  7  2  0
  7  8  1  0
  8  9  2  0
  9 10  1  0
 10 11  2  0
 11 12  1  0
 12 13  2  0
 12 14  1  0
 11 15  1  0
 10 16  1  0
  9 17  1  0
  7 18  1  0
  5 19  1  0
  3 20  1  0
  3 21  1  0
  2 22  1  0
 22 23  1  0
 23 24  1  0
 24 25  2  0
 25 26  1  0
 26 27  1  0
 27 28  1  0
 28 29  1  0
 28 30  1  0
 27 31  1  0
 27 32  1  0
 26 33  1  0
 26 34  1  0
 25 35  1  0
 24 36  1  0
 23 37  1  0
 23 38  1  0
 13  4  1  0
 28 22  1  0
 13  8  1  0
M  END
>  <cnnaffinities>  (1) 
[5.08194, 4.90385, 5.02391, 4.80015, 4.89011, 5.10183, 4.78408, 4.89779, 4.93983, 5.12345, 4.7621, 5.12001, 4.81664, 4.92364, 4.73858, 5.04589, 4.9945, 5.0276, 4.97858]

>  <score>  (1) 
5.08194

>  <index>  (1) 
89

>  <Smiles>  (1) 
O=C(C(c1c(nc(c2c(c(c(c(c12)[H])[H])[H])[H])[H])[H])([H])[H])N1C(C(=C(C(C(C1([H])[H])([H])[H])([H])[H])[H])[H])([H])[H]

>  <h>  (1) 
<NA>

>  <Training>  (1) 
True

>  <Success>  (1) 
True

>  <enamine_searched>  (1) 
False

>  <enamine_id>  (1) 
nan

$$$$
