
     RDKit          3D

 60 64  0  0  0  0  0  0  0  0999 V2000
    8.8533   -2.0570   26.1991 C   0  0  0  0  0  0  0  0  0  0  0  0
    9.1388   -1.9704   24.7146 C   0  0  0  0  0  0  0  0  0  0  0  0
    7.9405   -1.5743   24.0677 O   0  0  0  0  0  0  0  0  0  0  0  0
    8.1090   -1.1817   22.7317 C   0  0  1  0  0  0  0  0  0  0  0  0
    6.7982   -1.3509   21.9689 C   0  0  0  0  0  0  0  0  0  0  0  0
    6.8591   -0.2988   20.9813 N   0  0  0  0  0  0  0  0  0  0  0  0
    5.8985   -0.1412   19.9521 C   0  0  0  0  0  0  0  0  0  0  0  0
    6.0846   -0.7752   18.7528 C   0  0  0  0  0  0  0  0  0  0  0  0
    5.2669   -0.6453   17.6812 N   0  0  0  0  0  0  0  0  0  0  0  0
    4.2071    0.1146   17.8291 C   0  0  0  0  0  0  0  0  0  0  0  0
    3.8660    0.7868   19.0385 C   0  0  0  0  0  0  0  0  0  0  0  0
    2.6883    1.5704   19.1610 C   0  0  0  0  0  0  0  0  0  0  0  0
    2.3703    2.1672   20.3500 C   0  0  0  0  0  0  0  0  0  0  0  0
    3.2373    2.0538   21.4595 C   0  0  0  0  0  0  0  0  0  0  0  0
    4.3988    1.3291   21.3580 C   0  0  0  0  0  0  0  0  0  0  0  0
    4.7345    0.6617   20.1451 C   0  0  0  0  0  0  0  0  0  0  0  0
    5.0633    1.2624   22.2143 H   0  0  0  0  0  0  0  0  0  0  0  0
    2.9967    2.5579   22.3906 H   0  0  0  0  0  0  0  0  0  0  0  0
    1.4445    2.7258   20.4505 H   0  0  0  0  0  0  0  0  0  0  0  0
    2.0569    1.6914   18.2880 H   0  0  0  0  0  0  0  0  0  0  0  0
    3.5404    0.2080   16.9724 H   0  0  0  0  0  0  0  0  0  0  0  0
    6.9552   -1.4142   18.6208 H   0  0  0  0  0  0  0  0  0  0  0  0
    7.7905    0.6831   21.2413 C   0  0  0  0  0  0  0  0  0  0  0  0
    7.9342    1.6824   20.5699 O   0  0  0  0  0  0  0  0  0  0  0  0
    8.5601    0.2937   22.5211 C   0  0  1  0  0  0  0  0  0  0  0  0
    8.1141    1.2012   23.6981 C   0  0  0  0  0  0  0  0  0  0  0  0
    8.6327    2.5581   23.5556 N   0  0  0  0  0  0  0  0  0  0  0  0
    7.8178    3.6563   24.0374 C   0  0  0  0  0  0  0  0  0  0  0  0
    6.6947    3.9758   23.0435 C   0  0  0  0  0  0  0  0  0  0  0  0
    5.5327    3.6736   23.2706 O   0  0  0  0  0  0  0  0  0  0  0  0
    7.0715    4.6249   21.9042 N   0  0  0  0  0  0  0  0  0  0  0  0
    6.0313    4.9755   20.9433 C   0  0  0  0  0  0  0  0  0  0  0  0
    5.5102    4.0646   20.6067 H   0  0  0  0  0  0  0  0  0  0  0  0
    5.2990    5.6459   21.4080 H   0  0  0  0  0  0  0  0  0  0  0  0
    6.4616    5.5226   20.0998 H   0  0  0  0  0  0  0  0  0  0  0  0
    8.0293    4.5209   21.5863 H   0  0  0  0  0  0  0  0  0  0  0  0
    7.3672    3.3887   24.9988 H   0  0  0  0  0  0  0  0  0  0  0  0
    8.4747    4.5196   24.1954 H   0  0  0  0  0  0  0  0  0  0  0  0
    9.9410    2.8057   23.2370 C   0  0  0  0  0  0  0  0  0  0  0  0
   10.4637    3.9012   23.4014 O   0  0  0  0  0  0  0  0  0  0  0  0
   10.7045    1.6515   22.6635 C   0  0  0  0  0  0  0  0  0  0  0  0
   12.0801    1.7987   22.4742 C   0  0  0  0  0  0  0  0  0  0  0  0
   12.8264    0.7641   21.9435 C   0  0  0  0  0  0  0  0  0  0  0  0
   12.1741   -0.4128   21.5843 C   0  0  0  0  0  0  0  0  0  0  0  0
   13.1069   -1.7243   20.9332 Cl  0  0  0  0  0  0  0  0  0  0  0  0
   10.8045   -0.5450   21.6977 C   0  0  0  0  0  0  0  0  0  0  0  0
   10.0537    0.4602   22.3178 C   0  0  0  0  0  0  0  0  0  0  0  0
   10.3311   -1.4324   21.2953 H   0  0  0  0  0  0  0  0  0  0  0  0
   13.8984    0.8494   21.8067 H   0  0  0  0  0  0  0  0  0  0  0  0
   12.5361    2.7511   22.7273 H   0  0  0  0  0  0  0  0  0  0  0  0
    8.4644    0.7634   24.6389 H   0  0  0  0  0  0  0  0  0  0  0  0
    7.0201    1.2410   23.7450 H   0  0  0  0  0  0  0  0  0  0  0  0
    5.9558   -1.2517   22.6659 H   0  0  0  0  0  0  0  0  0  0  0  0
    6.7398   -2.3328   21.4882 H   0  0  0  0  0  0  0  0  0  0  0  0
    8.8421   -1.8389   22.2582 H   0  0  0  0  0  0  0  0  0  0  0  0
    9.9447   -1.2466   24.5131 H   0  0  0  0  0  0  0  0  0  0  0  0
    9.4650   -2.9459   24.3195 H   0  0  0  0  0  0  0  0  0  0  0  0
    8.5901   -1.0704   26.5956 H   0  0  0  0  0  0  0  0  0  0  0  0
    8.0229   -2.7443   26.3822 H   0  0  0  0  0  0  0  0  0  0  0  0
    9.7337   -2.4240   26.7346 H   0  0  0  0  0  0  0  0  0  0  0  0
  1  2  1  0
  2  3  1  0
  3  4  1  0
  4  5  1  0
  5  6  1  0
  6  7  1  0
  7  8  2  0
  8  9  1  0
  9 10  2  0
 10 11  1  0
 11 12  2  0
 12 13  1  0
 13 14  2  0
 14 15  1  0
 15 16  2  0
 15 17  1  0
 14 18  1  0
 13 19  1  0
 12 20  1  0
 10 21  1  0
  8 22  1  0
  6 23  1  0
 23 24  2  0
 23 25  1  0
 25 26  1  1
 26 27  1  0
 27 28  1  0
 28 29  1  0
 29 30  2  0
 29 31  1  0
 31 32  1  0
 32 33  1  0
 32 34  1  0
 32 35  1  0
 31 36  1  0
 28 37  1  0
 28 38  1  0
 27 39  1  0
 39 40  2  0
 39 41  1  0
 41 42  2  0
 42 43  1  0
 43 44  2  0
 44 45  1  0
 44 46  1  0
 46 47  2  0
 46 48  1  0
 43 49  1  0
 42 50  1  0
 26 51  1  0
 26 52  1  0
  5 53  1  0
  5 54  1  0
  4 55  1  6
  2 56  1  0
  2 57  1  0
  1 58  1  0
  1 59  1  0
  1 60  1  0
 25  4  1  0
 47 41  1  0
 16  7  1  0
 47 25  1  0
 16 11  1  0
M  END
>  <cnnaffinities>  (1) 
[6.25716, 6.40616]

>  <score>  (1) 
6.25716

>  <index>  (1) 
39

>  <Smiles>  (1) 
C(C(O[C@]1(C(N(c2c(nc(c3c(c(c(c(c23)[H])[H])[H])[H])[H])[H])C(=O)[C@]21C(N(C(C(=O)N(C([H])([H])[H])[H])([H])[H])C(=O)c1c(c(c(Cl)c(c21)[H])[H])[H])([H])[H])([H])[H])[H])([H])[H])([H])([H])[H]

>  <h>  (1) 
<NA>

>  <Training>  (1) 
True

>  <Success>  (1) 
True

>  <enamine_searched>  (1) 
False

>  <enamine_id>  (1) 
nan

$$$$
