
     RDKit          3D

 41 44  0  0  0  0  0  0  0  0999 V2000
    8.9721    3.2696   23.0201 C   0  0  0  0  0  0  0  0  0  0  0  0
    9.6163    2.1364   22.2242 C   0  0  1  0  0  0  0  0  0  0  0  0
   10.9780    1.8377   22.7460 C   0  0  0  0  0  0  0  0  0  0  0  0
   12.1878    2.5084   22.3872 C   0  0  0  0  0  0  0  0  0  0  0  0
   13.2740    1.9695   22.9912 C   0  0  0  0  0  0  0  0  0  0  0  0
   12.8193    0.7356   24.1114 S   0  0  0  0  0  0  0  0  0  0  0  0
   11.1532    0.8577   23.6682 C   0  0  0  0  0  0  0  0  0  0  0  0
   10.0029    0.0251   24.1711 C   0  0  0  0  0  0  0  0  0  0  0  0
    9.0233   -0.2508   23.0228 C   0  0  0  0  0  0  0  0  0  0  0  0
    8.7843    0.9224   22.1753 N   0  0  0  0  0  0  0  0  0  0  0  0
    7.8125    0.9354   21.2076 C   0  0  0  0  0  0  0  0  0  0  0  0
    7.6808    1.8925   20.4618 O   0  0  0  0  0  0  0  0  0  0  0  0
    6.9130   -0.3054   21.0777 C   0  0  0  0  0  0  0  0  0  0  0  0
    5.8845   -0.1691   19.9838 C   0  0  0  0  0  0  0  0  0  0  0  0
    6.0617   -0.7884   18.7735 C   0  0  0  0  0  0  0  0  0  0  0  0
    5.2526   -0.6500   17.6911 N   0  0  0  0  0  0  0  0  0  0  0  0
    4.1903    0.1024   17.8359 C   0  0  0  0  0  0  0  0  0  0  0  0
    3.8388    0.7601   19.0443 C   0  0  0  0  0  0  0  0  0  0  0  0
    2.6609    1.5385   19.1646 C   0  0  0  0  0  0  0  0  0  0  0  0
    2.3506    2.1574   20.3424 C   0  0  0  0  0  0  0  0  0  0  0  0
    3.2295    2.0542   21.4429 C   0  0  0  0  0  0  0  0  0  0  0  0
    4.3866    1.3202   21.3470 C   0  0  0  0  0  0  0  0  0  0  0  0
    4.7169    0.6379   20.1468 C   0  0  0  0  0  0  0  0  0  0  0  0
    5.0713    1.2624   22.1881 H   0  0  0  0  0  0  0  0  0  0  0  0
    2.9944    2.5760   22.3660 H   0  0  0  0  0  0  0  0  0  0  0  0
    1.4360    2.7385   20.4290 H   0  0  0  0  0  0  0  0  0  0  0  0
    2.0210    1.6482   18.2956 H   0  0  0  0  0  0  0  0  0  0  0  0
    3.5237    0.1840   16.9768 H   0  0  0  0  0  0  0  0  0  0  0  0
    6.9071   -1.4551   18.6008 H   0  0  0  0  0  0  0  0  0  0  0  0
    7.5592   -1.1648   20.8552 H   0  0  0  0  0  0  0  0  0  0  0  0
    6.4439   -0.5220   22.0481 H   0  0  0  0  0  0  0  0  0  0  0  0
    9.4008   -1.0888   22.4139 H   0  0  0  0  0  0  0  0  0  0  0  0
    8.0605   -0.5553   23.4479 H   0  0  0  0  0  0  0  0  0  0  0  0
    9.4739    0.5689   24.9712 H   0  0  0  0  0  0  0  0  0  0  0  0
   10.3315   -0.9342   24.5878 H   0  0  0  0  0  0  0  0  0  0  0  0
   14.3181    2.2209   22.8276 H   0  0  0  0  0  0  0  0  0  0  0  0
   12.2484    3.3761   21.7397 H   0  0  0  0  0  0  0  0  0  0  0  0
    9.7039    2.4610   21.1815 H   0  0  0  0  0  0  0  0  0  0  0  0
    8.0212    3.5699   22.5731 H   0  0  0  0  0  0  0  0  0  0  0  0
    9.6659    4.1167   23.0016 H   0  0  0  0  0  0  0  0  0  0  0  0
    8.8328    2.9608   24.0627 H   0  0  0  0  0  0  0  0  0  0  0  0
  1  2  1  0
  2  3  1  0
  3  4  1  0
  4  5  2  0
  5  6  1  0
  6  7  1  0
  7  8  1  0
  8  9  1  0
  9 10  1  0
 10 11  1  0
 11 12  2  0
 11 13  1  0
 13 14  1  0
 14 15  2  0
 15 16  1  0
 16 17  2  0
 17 18  1  0
 18 19  2  0
 19 20  1  0
 20 21  2  0
 21 22  1  0
 22 23  2  0
 22 24  1  0
 21 25  1  0
 20 26  1  0
 19 27  1  0
 17 28  1  0
 15 29  1  0
 13 30  1  0
 13 31  1  0
  9 32  1  0
  9 33  1  0
  8 34  1  0
  8 35  1  0
  5 36  1  0
  4 37  1  0
  2 38  1  6
  1 39  1  0
  1 40  1  0
  1 41  1  0
 10  2  1  0
 23 14  1  0
  7  3  2  0
 23 18  1  0
M  END
>  <cnnaffinities>  (1) 
[5.40567, 5.31416]

>  <score>  (1) 
5.40567

>  <index>  (1) 
4

>  <Smiles>  (1) 
C([C@]1(c2c(c(sc2C(C(N1C(=O)C(c1c(nc(c2c(c(c(c(c12)[H])[H])[H])[H])[H])[H])([H])[H])([H])[H])([H])[H])[H])[H])[H])([H])([H])[H]

>  <h>  (1) 
<NA>

>  <Training>  (1) 
True

>  <Success>  (1) 
True

>  <enamine_searched>  (1) 
False

>  <enamine_id>  (1) 
nan

$$$$
