
     RDKit          3D

 60 65  0  0  0  0  0  0  0  0999 V2000
    6.6737   -1.1748   26.2500 C   0  0  0  0  0  0  0  0  0  0  0  0
    6.7863   -0.9199   24.8738 O   0  0  0  0  0  0  0  0  0  0  0  0
    7.9039   -1.5514   24.2883 C   0  0  0  0  0  0  0  0  0  0  0  0
    8.0282   -1.1356   22.8274 C   0  0  1  0  0  0  0  0  0  0  0  0
    6.7287   -1.3277   22.0358 C   0  0  0  0  0  0  0  0  0  0  0  0
    6.8386   -0.3414   20.9820 N   0  0  0  0  0  0  0  0  0  0  0  0
    5.8844   -0.1741   19.9472 C   0  0  0  0  0  0  0  0  0  0  0  0
    6.0990   -0.7636   18.7320 C   0  0  0  0  0  0  0  0  0  0  0  0
    5.2818   -0.6302   17.6601 N   0  0  0  0  0  0  0  0  0  0  0  0
    4.2101    0.1110   17.8120 C   0  0  0  0  0  0  0  0  0  0  0  0
    3.8532    0.7624   19.0279 C   0  0  0  0  0  0  0  0  0  0  0  0
    2.6827    1.5583   19.1502 C   0  0  0  0  0  0  0  0  0  0  0  0
    2.3570    2.1373   20.3446 C   0  0  0  0  0  0  0  0  0  0  0  0
    3.1932    1.9632   21.4708 C   0  0  0  0  0  0  0  0  0  0  0  0
    4.3458    1.2210   21.3731 C   0  0  0  0  0  0  0  0  0  0  0  0
    4.7056    0.6069   20.1435 C   0  0  0  0  0  0  0  0  0  0  0  0
    5.0118    1.1481   22.2304 H   0  0  0  0  0  0  0  0  0  0  0  0
    2.9423    2.4522   22.4082 H   0  0  0  0  0  0  0  0  0  0  0  0
    1.4534    2.7353   20.4376 H   0  0  0  0  0  0  0  0  0  0  0  0
    2.0627    1.7020   18.2716 H   0  0  0  0  0  0  0  0  0  0  0  0
    3.5528    0.2190   16.9488 H   0  0  0  0  0  0  0  0  0  0  0  0
    6.9874   -1.3730   18.5880 H   0  0  0  0  0  0  0  0  0  0  0  0
    7.7894    0.6315   21.2039 C   0  0  0  0  0  0  0  0  0  0  0  0
    7.9929    1.5541   20.4463 O   0  0  0  0  0  0  0  0  0  0  0  0
    8.5270    0.3158   22.5288 C   0  0  1  0  0  0  0  0  0  0  0  0
    8.1058    1.3166   23.6443 C   0  0  0  0  0  0  0  0  0  0  0  0
    8.6683    2.6451   23.4638 N   0  0  0  0  0  0  0  0  0  0  0  0
    7.8547    3.8020   23.8048 C   0  0  0  0  0  0  0  0  0  0  0  0
    7.1164    4.3102   22.6121 C   0  0  0  0  0  0  0  0  0  0  0  0
    5.9039    3.9315   22.2758 N   0  0  0  0  0  0  0  0  0  0  0  0
    5.6204    4.6640   21.1473 C   0  0  0  0  0  0  0  0  0  0  0  0
    6.6654    5.4812   20.8065 C   0  0  0  0  0  0  0  0  0  0  0  0
    7.6290    5.2337   21.7649 N   0  0  0  0  0  0  0  0  0  0  0  0
    8.5878    5.5610   21.7631 H   0  0  0  0  0  0  0  0  0  0  0  0
    6.7658    6.2255   20.0320 H   0  0  0  0  0  0  0  0  0  0  0  0
    4.6900    4.5357   20.6179 H   0  0  0  0  0  0  0  0  0  0  0  0
    7.1045    3.5310   24.5547 H   0  0  0  0  0  0  0  0  0  0  0  0
    8.5126    4.5772   24.2081 H   0  0  0  0  0  0  0  0  0  0  0  0
    9.9379    2.8774   23.0155 C   0  0  0  0  0  0  0  0  0  0  0  0
   10.4141    4.0096   22.9973 O   0  0  0  0  0  0  0  0  0  0  0  0
   10.6953    1.6556   22.5772 C   0  0  0  0  0  0  0  0  0  0  0  0
   12.0795    1.7454   22.4241 C   0  0  0  0  0  0  0  0  0  0  0  0
   12.8040    0.6786   21.9304 C   0  0  0  0  0  0  0  0  0  0  0  0
   12.1251   -0.4824   21.5687 C   0  0  0  0  0  0  0  0  0  0  0  0
   12.9974   -1.8086   20.8453 Cl  0  0  0  0  0  0  0  0  0  0  0  0
   10.7563   -0.5880   21.7209 C   0  0  0  0  0  0  0  0  0  0  0  0
   10.0255    0.4507   22.3106 C   0  0  0  0  0  0  0  0  0  0  0  0
   10.2769   -1.4823   21.3430 H   0  0  0  0  0  0  0  0  0  0  0  0
   13.8760    0.7433   21.7923 H   0  0  0  0  0  0  0  0  0  0  0  0
   12.5786    2.6704   22.6907 H   0  0  0  0  0  0  0  0  0  0  0  0
    8.4200    0.9408   24.6269 H   0  0  0  0  0  0  0  0  0  0  0  0
    7.0152    1.4152   23.6344 H   0  0  0  0  0  0  0  0  0  0  0  0
    5.8479   -1.1546   22.6655 H   0  0  0  0  0  0  0  0  0  0  0  0
    6.6493   -2.3382   21.6199 H   0  0  0  0  0  0  0  0  0  0  0  0
    8.7663   -1.8106   22.3947 H   0  0  0  0  0  0  0  0  0  0  0  0
    7.7885   -2.6461   24.3565 H   0  0  0  0  0  0  0  0  0  0  0  0
    8.8276   -1.2829   24.8302 H   0  0  0  0  0  0  0  0  0  0  0  0
    6.5608   -2.2516   26.4509 H   0  0  0  0  0  0  0  0  0  0  0  0
    7.5508   -0.8063   26.8076 H   0  0  0  0  0  0  0  0  0  0  0  0
    5.7826   -0.6498   26.6040 H   0  0  0  0  0  0  0  0  0  0  0  0
  1  2  1  0
  2  3  1  0
  3  4  1  0
  4  5  1  0
  5  6  1  0
  6  7  1  0
  7  8  2  0
  8  9  1  0
  9 10  2  0
 10 11  1  0
 11 12  2  0
 12 13  1  0
 13 14  2  0
 14 15  1  0
 15 16  2  0
 15 17  1  0
 14 18  1  0
 13 19  1  0
 12 20  1  0
 10 21  1  0
  8 22  1  0
  6 23  1  0
 23 24  2  0
 23 25  1  0
 25 26  1  1
 26 27  1  0
 27 28  1  0
 28 29  1  0
 29 30  2  0
 30 31  1  0
 31 32  2  0
 32 33  1  0
 33 34  1  0
 32 35  1  0
 31 36  1  0
 28 37  1  0
 28 38  1  0
 27 39  1  0
 39 40  2  0
 39 41  1  0
 41 42  2  0
 42 43  1  0
 43 44  2  0
 44 45  1  0
 44 46  1  0
 46 47  2  0
 46 48  1  0
 43 49  1  0
 42 50  1  0
 26 51  1  0
 26 52  1  0
  5 53  1  0
  5 54  1  0
  4 55  1  6
  3 56  1  0
  3 57  1  0
  1 58  1  0
  1 59  1  0
  1 60  1  0
 25  4  1  0
 33 29  1  0
 47 41  1  0
 16  7  1  0
 47 25  1  0
 16 11  1  0
M  END
>  <cnnaffinities>  (1) 
[6.31569, 6.08951, 6.21651]

>  <score>  (1) 
6.31569

>  <index>  (1) 
59

>  <Smiles>  (1) 
C(OC([C@]1(C(N(c2c(nc(c3c(c(c(c(c23)[H])[H])[H])[H])[H])[H])C(=O)[C@]21C(N(C(c1nc(c(n1[H])[H])[H])([H])[H])C(=O)c1c(c(c(Cl)c(c21)[H])[H])[H])([H])[H])([H])[H])[H])([H])[H])([H])([H])[H]

>  <h>  (1) 
<NA>

>  <Training>  (1) 
True

>  <Success>  (1) 
True

>  <enamine_searched>  (1) 
False

>  <enamine_id>  (1) 
nan

$$$$
