
     RDKit          3D

 54 57  0  0  0  0  0  0  0  0999 V2000
    9.6036    3.5897   23.8726 C   0  0  0  0  0  0  0  0  0  0  0  0
    8.9760    2.3322   23.8751 O   0  0  0  0  0  0  0  0  0  0  0  0
    9.6911    1.2659   23.4272 C   0  0  0  0  0  0  0  0  0  0  0  0
   11.0051    1.3715   22.9726 C   0  0  0  0  0  0  0  0  0  0  0  0
   11.6557    0.2450   22.4802 C   0  0  0  0  0  0  0  0  0  0  0  0
   10.9968   -0.9734   22.4457 C   0  0  0  0  0  0  0  0  0  0  0  0
    9.6873   -1.0671   22.9158 C   0  0  0  0  0  0  0  0  0  0  0  0
    9.0151    0.0308   23.4315 C   0  0  0  0  0  0  0  0  0  0  0  0
    7.5823   -0.0486   23.9638 C   0  0  2  0  0  0  0  0  0  0  0  0
    7.4982    0.0948   25.5012 C   0  0  0  0  0  0  0  0  0  0  0  0
    7.5946   -1.2021   26.3127 C   0  0  2  0  0  0  0  0  0  0  0  0
    9.0048   -1.7982   26.3806 C   0  0  0  0  0  0  0  0  0  0  0  0
    9.7198   -1.0664   26.7727 H   0  0  0  0  0  0  0  0  0  0  0  0
    9.0237   -2.6760   27.0381 H   0  0  0  0  0  0  0  0  0  0  0  0
    9.3710   -2.1097   25.3977 H   0  0  0  0  0  0  0  0  0  0  0  0
    6.5469   -2.1746   25.7645 C   0  0  0  0  0  0  0  0  0  0  0  0
    6.7422   -2.4391   24.2779 C   0  0  0  0  0  0  0  0  0  0  0  0
    6.8312   -1.2100   23.4816 N   0  0  0  0  0  0  0  0  0  0  0  0
    6.3993   -1.3330   22.1756 C   0  0  0  0  0  0  0  0  0  0  0  0
    5.6931   -2.2674   21.8387 O   0  0  0  0  0  0  0  0  0  0  0  0
    6.8668   -0.3338   21.0975 C   0  0  0  0  0  0  0  0  0  0  0  0
    5.8665   -0.1769   19.9821 C   0  0  0  0  0  0  0  0  0  0  0  0
    6.0393   -0.8061   18.7763 C   0  0  0  0  0  0  0  0  0  0  0  0
    5.2334   -0.6661   17.6903 N   0  0  0  0  0  0  0  0  0  0  0  0
    4.1746    0.0930   17.8309 C   0  0  0  0  0  0  0  0  0  0  0  0
    3.8214    0.7471   19.0431 C   0  0  0  0  0  0  0  0  0  0  0  0
    2.6409    1.5209   19.1682 C   0  0  0  0  0  0  0  0  0  0  0  0
    2.3276    2.1330   20.3496 C   0  0  0  0  0  0  0  0  0  0  0  0
    3.1991    2.0194   21.4542 C   0  0  0  0  0  0  0  0  0  0  0  0
    4.3542    1.2847   21.3576 C   0  0  0  0  0  0  0  0  0  0  0  0
    4.6932    0.6171   20.1497 C   0  0  0  0  0  0  0  0  0  0  0  0
    5.0181    1.2132   22.2152 H   0  0  0  0  0  0  0  0  0  0  0  0
    2.9606    2.5304   22.3820 H   0  0  0  0  0  0  0  0  0  0  0  0
    1.4150    2.7145   20.4399 H   0  0  0  0  0  0  0  0  0  0  0  0
    1.9996    1.6334   18.3028 H   0  0  0  0  0  0  0  0  0  0  0  0
    3.5161    0.1942   16.9665 H   0  0  0  0  0  0  0  0  0  0  0  0
    6.8881   -1.4696   18.6126 H   0  0  0  0  0  0  0  0  0  0  0  0
    7.1381    0.6362   21.5218 H   0  0  0  0  0  0  0  0  0  0  0  0
    7.7963   -0.7492   20.6838 H   0  0  0  0  0  0  0  0  0  0  0  0
    7.6351   -3.0679   24.1229 H   0  0  0  0  0  0  0  0  0  0  0  0
    5.8992   -2.9957   23.8680 H   0  0  0  0  0  0  0  0  0  0  0  0
    6.5932   -3.1307   26.3069 H   0  0  0  0  0  0  0  0  0  0  0  0
    5.5448   -1.7516   25.9222 H   0  0  0  0  0  0  0  0  0  0  0  0
    7.2998   -0.9496   27.3415 H   0  0  0  0  0  0  0  0  0  0  0  0
    6.5294    0.5622   25.7258 H   0  0  0  0  0  0  0  0  0  0  0  0
    8.2792    0.7967   25.8112 H   0  0  0  0  0  0  0  0  0  0  0  0
    7.0673    0.8387   23.5771 H   0  0  0  0  0  0  0  0  0  0  0  0
    9.1774   -2.0285   22.8952 H   0  0  0  0  0  0  0  0  0  0  0  0
   11.4851   -1.8646   22.0668 H   0  0  0  0  0  0  0  0  0  0  0  0
   12.6785    0.3304   22.1210 H   0  0  0  0  0  0  0  0  0  0  0  0
   11.5190    2.3252   22.9882 H   0  0  0  0  0  0  0  0  0  0  0  0
    9.7558    3.9684   22.8519 H   0  0  0  0  0  0  0  0  0  0  0  0
    8.9198    4.2461   24.4108 H   0  0  0  0  0  0  0  0  0  0  0  0
   10.5735    3.5488   24.3899 H   0  0  0  0  0  0  0  0  0  0  0  0
  1  2  1  0
  2  3  1  0
  3  4  2  0
  4  5  1  0
  5  6  2  0
  6  7  1  0
  7  8  2  0
  8  9  1  0
  9 10  1  0
 10 11  1  0
 11 12  1  0
 12 13  1  0
 12 14  1  0
 12 15  1  0
 11 16  1  0
 16 17  1  0
 17 18  1  0
 18 19  1  0
 19 20  2  0
 19 21  1  0
 21 22  1  0
 22 23  2  0
 23 24  1  0
 24 25  2  0
 25 26  1  0
 26 27  2  0
 27 28  1  0
 28 29  2  0
 29 30  1  0
 30 31  2  0
 30 32  1  0
 29 33  1  0
 28 34  1  0
 27 35  1  0
 25 36  1  0
 23 37  1  0
 21 38  1  0
 21 39  1  0
 17 40  1  0
 17 41  1  0
 16 42  1  0
 16 43  1  0
 11 44  1  1
 10 45  1  0
 10 46  1  0
  9 47  1  6
  7 48  1  0
  6 49  1  0
  5 50  1  0
  4 51  1  0
  1 52  1  0
  1 53  1  0
  1 54  1  0
  8  3  1  0
 18  9  1  0
 31 22  1  0
 31 26  1  0
M  END
>  <cnnaffinities>  (1) 
[5.79148, 5.91045, 5.75609, 5.73146]

>  <score>  (1) 
5.79148

>  <index>  (1) 
11

>  <Smiles>  (1) 
C(Oc1c(c(c(c(c1[C@@]1(C([C@](C([H])([H])[H])(C(C(N1C(=O)C(c1c(nc(c2c(c(c(c(c12)[H])[H])[H])[H])[H])[H])([H])[H])([H])[H])([H])[H])[H])([H])[H])[H])[H])[H])[H])[H])([H])([H])[H]

>  <h>  (1) 
<NA>

>  <Training>  (1) 
True

>  <Success>  (1) 
True

>  <enamine_searched>  (1) 
False

>  <enamine_id>  (1) 
nan

$$$$
