
     RDKit          3D

 66 71  0  0  0  0  0  0  0  0999 V2000
    7.3731    5.5304   27.0743 C   0  0  0  0  0  0  0  0  0  0  0  0
    7.6094    5.1406   25.6954 N   0  0  0  0  0  0  0  0  0  0  0  0
    7.0177    4.0228   25.2198 C   0  0  0  0  0  0  0  0  0  0  0  0
    6.2422    3.3521   25.8885 O   0  0  0  0  0  0  0  0  0  0  0  0
    7.3254    3.6670   23.7593 C   0  0  0  0  0  0  0  0  0  0  0  0
    8.2844    2.6011   23.5968 N   0  0  0  0  0  0  0  0  0  0  0  0
    7.8713    1.2268   23.7806 C   0  0  0  0  0  0  0  0  0  0  0  0
    8.4191    0.3250   22.6450 C   0  0  2  0  0  0  0  0  0  0  0  0
    7.7155    0.6885   21.3149 C   0  0  0  0  0  0  0  0  0  0  0  0
    7.8639    1.6906   20.6524 O   0  0  0  0  0  0  0  0  0  0  0  0
    6.8467   -0.3279   20.9876 N   0  0  0  0  0  0  0  0  0  0  0  0
    5.8891   -0.1621   19.9582 C   0  0  0  0  0  0  0  0  0  0  0  0
    6.0594   -0.8116   18.7650 C   0  0  0  0  0  0  0  0  0  0  0  0
    5.2383   -0.6741   17.6967 N   0  0  0  0  0  0  0  0  0  0  0  0
    4.1838    0.0920   17.8428 C   0  0  0  0  0  0  0  0  0  0  0  0
    3.8360    0.7583   19.0533 C   0  0  0  0  0  0  0  0  0  0  0  0
    2.6507    1.5336   19.1806 C   0  0  0  0  0  0  0  0  0  0  0  0
    2.3397    2.1490   20.3595 C   0  0  0  0  0  0  0  0  0  0  0  0
    3.2117    2.0357   21.4645 C   0  0  0  0  0  0  0  0  0  0  0  0
    4.3687    1.3020   21.3654 C   0  0  0  0  0  0  0  0  0  0  0  0
    4.7146    0.6386   20.1505 C   0  0  0  0  0  0  0  0  0  0  0  0
    5.0376    1.2261   22.2197 H   0  0  0  0  0  0  0  0  0  0  0  0
    2.9752    2.5500   22.3902 H   0  0  0  0  0  0  0  0  0  0  0  0
    1.4294    2.7340   20.4479 H   0  0  0  0  0  0  0  0  0  0  0  0
    2.0080    1.6422   18.3166 H   0  0  0  0  0  0  0  0  0  0  0  0
    3.5261    0.1849   16.9809 H   0  0  0  0  0  0  0  0  0  0  0  0
    6.9081   -1.4768   18.6182 H   0  0  0  0  0  0  0  0  0  0  0  0
    6.7644   -1.3816   21.9734 C   0  0  0  0  0  0  0  0  0  0  0  0
    8.0248   -1.1744   22.8336 C   0  0  2  0  0  0  0  0  0  0  0  0
    7.8356   -1.6796   24.2797 C   0  0  0  0  0  0  0  0  0  0  0  0
    7.5943   -3.1745   24.3448 C   0  0  0  0  0  0  0  0  0  0  0  0
    8.6720   -4.0619   24.2818 C   0  0  0  0  0  0  0  0  0  0  0  0
    8.4702   -5.4389   24.3083 C   0  0  0  0  0  0  0  0  0  0  0  0
    7.1806   -5.9567   24.3870 C   0  0  0  0  0  0  0  0  0  0  0  0
    6.0953   -5.0865   24.4476 C   0  0  0  0  0  0  0  0  0  0  0  0
    6.3034   -3.7078   24.4260 C   0  0  0  0  0  0  0  0  0  0  0  0
    5.4477   -3.0333   24.4682 H   0  0  0  0  0  0  0  0  0  0  0  0
    5.0834   -5.4826   24.5137 H   0  0  0  0  0  0  0  0  0  0  0  0
    7.0278   -7.0334   24.4059 H   0  0  0  0  0  0  0  0  0  0  0  0
    9.3233   -6.1113   24.2766 H   0  0  0  0  0  0  0  0  0  0  0  0
    9.6830   -3.6606   24.2086 H   0  0  0  0  0  0  0  0  0  0  0  0
    8.7263   -1.4276   24.8723 H   0  0  0  0  0  0  0  0  0  0  0  0
    6.9852   -1.1573   24.7383 H   0  0  0  0  0  0  0  0  0  0  0  0
    8.8354   -1.7601   22.3921 H   0  0  0  0  0  0  0  0  0  0  0  0
    6.7331   -2.3614   21.4853 H   0  0  0  0  0  0  0  0  0  0  0  0
    5.8464   -1.3015   22.5804 H   0  0  0  0  0  0  0  0  0  0  0  0
    9.9076    0.6051   22.5245 C   0  0  0  0  0  0  0  0  0  0  0  0
   10.7338   -0.2986   21.8492 C   0  0  0  0  0  0  0  0  0  0  0  0
   12.0903   -0.0574   21.7565 C   0  0  0  0  0  0  0  0  0  0  0  0
   13.0835   -1.2559   20.9785 Cl  0  0  0  0  0  0  0  0  0  0  0  0
   12.6620    1.1134   22.2534 C   0  0  0  0  0  0  0  0  0  0  0  0
   11.8388    2.0474   22.8553 C   0  0  0  0  0  0  0  0  0  0  0  0
   10.4699    1.8145   22.9659 C   0  0  0  0  0  0  0  0  0  0  0  0
    9.6003    2.9262   23.4688 C   0  0  0  0  0  0  0  0  0  0  0  0
   10.0149    4.0586   23.7037 O   0  0  0  0  0  0  0  0  0  0  0  0
   12.2141    2.9910   23.2393 H   0  0  0  0  0  0  0  0  0  0  0  0
   13.7220    1.3013   22.1326 H   0  0  0  0  0  0  0  0  0  0  0  0
   10.3400   -1.1771   21.3479 H   0  0  0  0  0  0  0  0  0  0  0  0
    6.7754    1.2080   23.7972 H   0  0  0  0  0  0  0  0  0  0  0  0
    8.2463    0.8598   24.7483 H   0  0  0  0  0  0  0  0  0  0  0  0
    7.6906    4.5275   23.1906 H   0  0  0  0  0  0  0  0  0  0  0  0
    6.3790    3.3316   23.3227 H   0  0  0  0  0  0  0  0  0  0  0  0
    8.3501    5.5512   25.1410 H   0  0  0  0  0  0  0  0  0  0  0  0
    8.0568    6.3460   27.3165 H   0  0  0  0  0  0  0  0  0  0  0  0
    7.5286    4.6839   27.7547 H   0  0  0  0  0  0  0  0  0  0  0  0
    6.3344    5.8547   27.2240 H   0  0  0  0  0  0  0  0  0  0  0  0
  1  2  1  0
  2  3  1  0
  3  4  2  0
  3  5  1  0
  5  6  1  0
  6  7  1  0
  8  7  1  1
  8  9  1  0
  9 10  2  0
  9 11  1  0
 11 12  1  0
 12 13  2  0
 13 14  1  0
 14 15  2  0
 15 16  1  0
 16 17  2  0
 17 18  1  0
 18 19  2  0
 19 20  1  0
 20 21  2  0
 20 22  1  0
 19 23  1  0
 18 24  1  0
 17 25  1  0
 15 26  1  0
 13 27  1  0
 11 28  1  0
 28 29  1  0
 29 30  1  0
 30 31  1  0
 31 32  2  0
 32 33  1  0
 33 34  2  0
 34 35  1  0
 35 36  2  0
 36 37  1  0
 35 38  1  0
 34 39  1  0
 33 40  1  0
 32 41  1  0
 30 42  1  0
 30 43  1  0
 29 44  1  6
 28 45  1  0
 28 46  1  0
  8 47  1  0
 47 48  2  0
 48 49  1  0
 49 50  1  0
 49 51  2  0
 51 52  1  0
 52 53  2  0
 53 54  1  0
 54 55  2  0
 52 56  1  0
 51 57  1  0
 48 58  1  0
  7 59  1  0
  7 60  1  0
  5 61  1  0
  5 62  1  0
  2 63  1  0
  1 64  1  0
  1 65  1  0
  1 66  1  0
 54  6  1  0
 29  8  1  0
 36 31  1  0
 53 47  1  0
 21 12  1  0
 21 16  1  0
M  END
>  <cnnaffinities>  (1) 
[6.38924, 6.53577, 6.53361]

>  <score>  (1) 
6.38924

>  <index>  (1) 
30

>  <Smiles>  (1) 
C(N(C(=O)C(N1C([C@@]2(C(=O)N(c3c(nc(c4c(c(c(c(c34)[H])[H])[H])[H])[H])[H])C([C@@]2(C(c2c(c(c(c(c2[H])[H])[H])[H])[H])([H])[H])[H])([H])[H])c2c(c(Cl)c(c(c2C1=O)[H])[H])[H])([H])[H])([H])[H])[H])([H])([H])[H]

>  <h>  (1) 
<NA>

>  <Training>  (1) 
True

>  <Success>  (1) 
True

>  <enamine_searched>  (1) 
False

>  <enamine_id>  (1) 
nan

$$$$
