
     RDKit          3D

 56 61  0  0  0  0  0  0  0  0999 V2000
    4.8598    4.6655   20.5864 C   0  0  0  0  0  0  0  0  0  0  0  0
    6.0431    4.7700   21.4081 N   0  0  0  0  0  0  0  0  0  0  0  0
    7.0657    5.6152   21.1769 C   0  0  0  0  0  0  0  0  0  0  0  0
    8.0111    5.3803   22.1443 C   0  0  0  0  0  0  0  0  0  0  0  0
    7.4601    4.3486   22.9351 C   0  0  0  0  0  0  0  0  0  0  0  0
    8.0515    3.6578   24.1385 C   0  0  0  0  0  0  0  0  0  0  0  0
    8.8053    2.4654   23.7720 N   0  0  0  0  0  0  0  0  0  0  0  0
    8.1675    1.1664   23.8206 C   0  0  0  0  0  0  0  0  0  0  0  0
    8.4701    0.2706   22.5986 C   0  0  1  0  0  0  0  0  0  0  0  0
    7.9078   -1.1401   22.9002 C   0  0  0  0  0  0  0  0  0  0  0  0
    7.0682   -1.5726   21.6941 C   0  0  0  0  0  0  0  0  0  0  0  0
    6.7831   -0.3059   21.0542 N   0  0  0  0  0  0  0  0  0  0  0  0
    5.8733   -0.1455   19.9917 C   0  0  0  0  0  0  0  0  0  0  0  0
    6.0899   -0.7679   18.7898 C   0  0  0  0  0  0  0  0  0  0  0  0
    5.2969   -0.6218   17.7043 N   0  0  0  0  0  0  0  0  0  0  0  0
    4.2393    0.1473   17.8429 C   0  0  0  0  0  0  0  0  0  0  0  0
    3.8879    0.8258   19.0462 C   0  0  0  0  0  0  0  0  0  0  0  0
    2.7107    1.6087   19.1594 C   0  0  0  0  0  0  0  0  0  0  0  0
    2.3555    2.1711   20.3549 C   0  0  0  0  0  0  0  0  0  0  0  0
    3.1945    2.0366   21.4817 C   0  0  0  0  0  0  0  0  0  0  0  0
    4.3691    1.3315   21.3895 C   0  0  0  0  0  0  0  0  0  0  0  0
    4.7300    0.6833   20.1710 C   0  0  0  0  0  0  0  0  0  0  0  0
    5.0224    1.2788   22.2547 H   0  0  0  0  0  0  0  0  0  0  0  0
    2.9245    2.5263   22.4137 H   0  0  0  0  0  0  0  0  0  0  0  0
    1.4198    2.7133   20.4448 H   0  0  0  0  0  0  0  0  0  0  0  0
    2.1013    1.7461   18.2742 H   0  0  0  0  0  0  0  0  0  0  0  0
    3.5783    0.2374   16.9809 H   0  0  0  0  0  0  0  0  0  0  0  0
    6.9646   -1.4052   18.6656 H   0  0  0  0  0  0  0  0  0  0  0  0
    7.6933    0.6892   21.3352 C   0  0  0  0  0  0  0  0  0  0  0  0
    7.8431    1.6853   20.6621 O   0  0  0  0  0  0  0  0  0  0  0  0
    6.1333   -2.0595   21.9904 H   0  0  0  0  0  0  0  0  0  0  0  0
    7.6152   -2.2600   21.0332 H   0  0  0  0  0  0  0  0  0  0  0  0
    7.2541   -1.0908   23.7773 H   0  0  0  0  0  0  0  0  0  0  0  0
    8.7073   -1.8417   23.1405 H   0  0  0  0  0  0  0  0  0  0  0  0
    9.9610    0.3286   22.3460 C   0  0  0  0  0  0  0  0  0  0  0  0
   10.6183   -0.7319   21.7299 C   0  0  0  0  0  0  0  0  0  0  0  0
   11.9846   -0.6787   21.5247 C   0  0  0  0  0  0  0  0  0  0  0  0
   12.7785   -2.0776   20.8745 Cl  0  0  0  0  0  0  0  0  0  0  0  0
   12.7382    0.4529   21.8492 C   0  0  0  0  0  0  0  0  0  0  0  0
   12.0787    1.5342   22.3983 C   0  0  0  0  0  0  0  0  0  0  0  0
   10.7100    1.4661   22.6571 C   0  0  0  0  0  0  0  0  0  0  0  0
   10.0795    2.6501   23.3038 C   0  0  0  0  0  0  0  0  0  0  0  0
   10.6675    3.7172   23.3986 O   0  0  0  0  0  0  0  0  0  0  0  0
   12.5782    2.4727   22.6135 H   0  0  0  0  0  0  0  0  0  0  0  0
   13.8099    0.4748   21.6829 H   0  0  0  0  0  0  0  0  0  0  0  0
   10.0695   -1.6166   21.4233 H   0  0  0  0  0  0  0  0  0  0  0  0
    8.5274    0.6166   24.6979 H   0  0  0  0  0  0  0  0  0  0  0  0
    7.0834    1.3077   23.9162 H   0  0  0  0  0  0  0  0  0  0  0  0
    8.7285    4.3221   24.6802 H   0  0  0  0  0  0  0  0  0  0  0  0
    7.2551    3.3622   24.8313 H   0  0  0  0  0  0  0  0  0  0  0  0
    6.2619    3.9857   22.4774 N   0  0  0  0  0  0  0  0  0  0  0  0
    8.9760    5.8589   22.2587 H   0  0  0  0  0  0  0  0  0  0  0  0
    7.0390    6.3218   20.3539 H   0  0  0  0  0  0  0  0  0  0  0  0
    4.8278    3.7006   20.0642 H   0  0  0  0  0  0  0  0  0  0  0  0
    3.9573    4.8235   21.1816 H   0  0  0  0  0  0  0  0  0  0  0  0
    4.9394    5.4785   19.8715 H   0  0  0  0  0  0  0  0  0  0  0  0
  1  2  1  0
  2  3  1  0
  3  4  2  0
  4  5  1  0
  5  6  1  0
  6  7  1  0
  7  8  1  0
  9  8  1  1
  9 10  1  0
 10 11  1  0
 11 12  1  0
 12 13  1  0
 13 14  2  0
 14 15  1  0
 15 16  2  0
 16 17  1  0
 17 18  2  0
 18 19  1  0
 19 20  2  0
 20 21  1  0
 21 22  2  0
 21 23  1  0
 20 24  1  0
 19 25  1  0
 18 26  1  0
 16 27  1  0
 14 28  1  0
 12 29  1  0
 29 30  2  0
 11 31  1  0
 11 32  1  0
 10 33  1  0
 10 34  1  0
  9 35  1  0
 35 36  2  0
 36 37  1  0
 37 38  1  0
 37 39  2  0
 39 40  1  0
 40 41  2  0
 41 42  1  0
 42 43  2  0
 40 44  1  0
 39 45  1  0
 36 46  1  0
  8 47  1  0
  8 48  1  0
  6 49  1  0
  6 50  1  0
  5 51  2  0
  4 52  1  0
  3 53  1  0
  1 54  1  0
  1 55  1  0
  1 56  1  0
 51  2  1  0
 42  7  1  0
 29  9  1  0
 41 35  1  0
 22 13  1  0
 22 17  1  0
M  END
>  <cnnaffinities>  (1) 
[5.9511]

>  <score>  (1) 
5.9511

>  <index>  (1) 
63

>  <Smiles>  (1) 
C(n1c(c(c(C(N2C([C@]3(C(C(N(c4c(nc(c5c(c(c(c(c45)[H])[H])[H])[H])[H])[H])C3=O)([H])[H])([H])[H])c3c(c(Cl)c(c(c3C2=O)[H])[H])[H])([H])[H])([H])[H])n1)[H])[H])([H])([H])[H]

>  <h>  (1) 
<NA>

>  <Training>  (1) 
True

>  <Success>  (1) 
True

>  <enamine_searched>  (1) 
False

>  <enamine_id>  (1) 
nan

$$$$
