
     RDKit          3D

 61 65  0  0  0  0  0  0  0  0999 V2000
    8.0500   -1.4858   24.2326 C   0  0  0  0  0  0  0  0  0  0  0  0
    8.1110   -1.0611   22.7715 C   0  0  1  0  0  0  0  0  0  0  0  0
    6.8061   -1.2838   21.9991 C   0  0  0  0  0  0  0  0  0  0  0  0
    6.8789   -0.2885   20.9474 N   0  0  0  0  0  0  0  0  0  0  0  0
    5.9003   -0.1486   19.9342 C   0  0  0  0  0  0  0  0  0  0  0  0
    6.0921   -0.7662   18.7281 C   0  0  0  0  0  0  0  0  0  0  0  0
    5.2662   -0.6377   17.6630 N   0  0  0  0  0  0  0  0  0  0  0  0
    4.2072    0.1180   17.8263 C   0  0  0  0  0  0  0  0  0  0  0  0
    3.8707    0.7857   19.0386 C   0  0  0  0  0  0  0  0  0  0  0  0
    2.7066    1.5892   19.1572 C   0  0  0  0  0  0  0  0  0  0  0  0
    2.3848    2.1778   20.3468 C   0  0  0  0  0  0  0  0  0  0  0  0
    3.2235    2.0112   21.4703 C   0  0  0  0  0  0  0  0  0  0  0  0
    4.3706    1.2583   21.3786 C   0  0  0  0  0  0  0  0  0  0  0  0
    4.7296    0.6365   20.1472 C   0  0  0  0  0  0  0  0  0  0  0  0
    5.0122    1.1564   22.2491 H   0  0  0  0  0  0  0  0  0  0  0  0
    2.9691    2.5032   22.4043 H   0  0  0  0  0  0  0  0  0  0  0  0
    1.4741    2.7639   20.4362 H   0  0  0  0  0  0  0  0  0  0  0  0
    2.0895    1.7253   18.2756 H   0  0  0  0  0  0  0  0  0  0  0  0
    3.5377    0.2173   16.9739 H   0  0  0  0  0  0  0  0  0  0  0  0
    6.9750   -1.3846   18.5885 H   0  0  0  0  0  0  0  0  0  0  0  0
    7.7705    0.7307   21.1949 C   0  0  0  0  0  0  0  0  0  0  0  0
    7.8825    1.7184   20.4892 O   0  0  0  0  0  0  0  0  0  0  0  0
    8.5282    0.4125   22.4995 C   0  0  1  0  0  0  0  0  0  0  0  0
    8.0389    1.3693   23.6209 C   0  0  0  0  0  0  0  0  0  0  0  0
    8.4540    2.7410   23.3716 N   0  0  0  0  0  0  0  0  0  0  0  0
    7.5430    3.7933   23.8121 C   0  0  0  0  0  0  0  0  0  0  0  0
    6.2973    3.8727   22.9123 C   0  0  0  0  0  0  0  0  0  0  0  0
    6.1938    5.2116   22.2201 N   0  0  0  0  0  0  0  0  0  0  0  0
    7.3550    5.4141   21.3103 C   0  0  0  0  0  0  0  0  0  0  0  0
    7.3513    4.5841   20.5923 H   0  0  0  0  0  0  0  0  0  0  0  0
    7.2706    6.3665   20.7767 H   0  0  0  0  0  0  0  0  0  0  0  0
    8.2964    5.4026   21.8592 H   0  0  0  0  0  0  0  0  0  0  0  0
    4.9650    5.4165   21.4123 C   0  0  0  0  0  0  0  0  0  0  0  0
    4.8652    4.6183   20.6676 H   0  0  0  0  0  0  0  0  0  0  0  0
    4.0752    5.4462   22.0401 H   0  0  0  0  0  0  0  0  0  0  0  0
    5.0588    6.3597   20.8678 H   0  0  0  0  0  0  0  0  0  0  0  0
    6.1964    5.9210   22.9685 H   0  0  0  0  0  0  0  0  0  0  0  0
    5.3808    3.7002   23.4863 H   0  0  0  0  0  0  0  0  0  0  0  0
    6.3667    3.1104   22.1344 H   0  0  0  0  0  0  0  0  0  0  0  0
    8.0824    4.7392   23.8013 H   0  0  0  0  0  0  0  0  0  0  0  0
    7.2730    3.6238   24.8636 H   0  0  0  0  0  0  0  0  0  0  0  0
    9.7502    3.0302   23.0374 C   0  0  0  0  0  0  0  0  0  0  0  0
   10.2304    4.1550   23.1328 O   0  0  0  0  0  0  0  0  0  0  0  0
   10.5945    1.8647   22.5714 C   0  0  0  0  0  0  0  0  0  0  0  0
   11.9810    2.0311   22.4585 C   0  0  0  0  0  0  0  0  0  0  0  0
   12.7830    0.9844   22.0446 C   0  0  0  0  0  0  0  0  0  0  0  0
   12.1953   -0.2352   21.7215 C   0  0  0  0  0  0  0  0  0  0  0  0
   13.2086   -1.5497   21.1924 Cl  0  0  0  0  0  0  0  0  0  0  0  0
   10.8279   -0.4140   21.8010 C   0  0  0  0  0  0  0  0  0  0  0  0
   10.0179    0.6150   22.3047 C   0  0  0  0  0  0  0  0  0  0  0  0
   10.4231   -1.3553   21.4402 H   0  0  0  0  0  0  0  0  0  0  0  0
   13.8597    1.0834   21.9495 H   0  0  0  0  0  0  0  0  0  0  0  0
   12.4211    2.9959   22.6899 H   0  0  0  0  0  0  0  0  0  0  0  0
    6.9444    1.3380   23.6782 H   0  0  0  0  0  0  0  0  0  0  0  0
    8.4331    1.0374   24.5939 H   0  0  0  0  0  0  0  0  0  0  0  0
    6.7559   -2.2947   21.5803 H   0  0  0  0  0  0  0  0  0  0  0  0
    5.9246   -1.1462   22.6459 H   0  0  0  0  0  0  0  0  0  0  0  0
    8.8512   -1.6938   22.2819 H   0  0  0  0  0  0  0  0  0  0  0  0
    9.0084   -1.2935   24.7295 H   0  0  0  0  0  0  0  0  0  0  0  0
    7.8323   -2.5566   24.2996 H   0  0  0  0  0  0  0  0  0  0  0  0
    7.2636   -0.9442   24.7732 H   0  0  0  0  0  0  0  0  0  0  0  0
  1  2  1  0
  2  3  1  0
  3  4  1  0
  4  5  1  0
  5  6  2  0
  6  7  1  0
  7  8  2  0
  8  9  1  0
  9 10  2  0
 10 11  1  0
 11 12  2  0
 12 13  1  0
 13 14  2  0
 13 15  1  0
 12 16  1  0
 11 17  1  0
 10 18  1  0
  8 19  1  0
  6 20  1  0
  4 21  1  0
 21 22  2  0
 21 23  1  0
 23 24  1  1
 24 25  1  0
 25 26  1  0
 26 27  1  0
 27 28  1  0
 28 29  1  0
 29 30  1  0
 29 31  1  0
 29 32  1  0
 28 33  1  0
 33 34  1  0
 33 35  1  0
 33 36  1  0
 28 37  1  0
 27 38  1  0
 27 39  1  0
 26 40  1  0
 26 41  1  0
 25 42  1  0
 42 43  2  0
 42 44  1  0
 44 45  2  0
 45 46  1  0
 46 47  2  0
 47 48  1  0
 47 49  1  0
 49 50  2  0
 49 51  1  0
 46 52  1  0
 45 53  1  0
 24 54  1  0
 24 55  1  0
  3 56  1  0
  3 57  1  0
  2 58  1  6
  1 59  1  0
  1 60  1  0
  1 61  1  0
 23  2  1  0
 50 44  1  0
 14  5  1  0
 50 23  1  0
 14  9  1  0
M  CHG  1  28   1
M  END
>  <cnnaffinities>  (1) 
[6.05534, 6.23553, 6.22669, 5.83887, 6.03116]

>  <score>  (1) 
6.05534

>  <index>  (1) 
76

>  <Smiles>  (1) 
C([C@]1(C(N(c2c(nc(c3c(c(c(c(c23)[H])[H])[H])[H])[H])[H])C(=O)[C@]21C(N(C(C([N+](C([H])([H])[H])(C([H])([H])[H])[H])([H])[H])([H])[H])C(=O)c1c(c(c(Cl)c(c21)[H])[H])[H])([H])[H])([H])[H])[H])([H])([H])[H]

>  <h>  (1) 
<NA>

>  <Training>  (1) 
True

>  <Success>  (1) 
True

>  <enamine_searched>  (1) 
False

>  <enamine_id>  (1) 
nan

$$$$
