
     RDKit          3D

 51 54  0  0  0  0  0  0  0  0999 V2000
   11.1068    7.8547   21.2719 N   0  0  0  0  0  0  0  0  0  0  0  0
   10.1960    7.5406   21.9089 C   0  0  0  0  0  0  0  0  0  0  0  0
    9.0662    7.1504   22.7756 C   0  0  0  0  0  0  0  0  0  0  0  0
    8.7193    5.6823   22.6717 C   0  0  0  0  0  0  0  0  0  0  0  0
    9.6253    4.7627   23.1927 C   0  0  0  0  0  0  0  0  0  0  0  0
    9.3842    3.4012   23.1255 C   0  0  0  0  0  0  0  0  0  0  0  0
    8.2334    2.9204   22.4946 C   0  0  0  0  0  0  0  0  0  0  0  0
    7.9658    1.5147   22.4479 N   0  0  0  0  0  0  0  0  0  0  0  0
    7.9576    0.7563   23.6925 C   0  0  0  0  0  0  0  0  0  0  0  0
    6.6193    0.8039   24.4071 C   0  0  0  0  0  0  0  0  0  0  0  0
    5.8642   -0.3490   24.6226 C   0  0  0  0  0  0  0  0  0  0  0  0
    4.6180   -0.2790   25.2395 C   0  0  0  0  0  0  0  0  0  0  0  0
    4.1131    0.9459   25.6616 C   0  0  0  0  0  0  0  0  0  0  0  0
    4.8824    2.0887   25.4675 C   0  0  0  0  0  0  0  0  0  0  0  0
    4.2587    3.6268   26.0043 Cl  0  0  0  0  0  0  0  0  0  0  0  0
    6.1262    2.0314   24.8500 C   0  0  0  0  0  0  0  0  0  0  0  0
    6.7079    2.9397   24.7019 H   0  0  0  0  0  0  0  0  0  0  0  0
    3.1385    1.0212   26.1331 H   0  0  0  0  0  0  0  0  0  0  0  0
    4.0372   -1.1877   25.3755 H   0  0  0  0  0  0  0  0  0  0  0  0
    6.2516   -1.3160   24.3044 H   0  0  0  0  0  0  0  0  0  0  0  0
    8.2435   -0.2766   23.4744 H   0  0  0  0  0  0  0  0  0  0  0  0
    8.7280    1.1808   24.3455 H   0  0  0  0  0  0  0  0  0  0  0  0
    7.7002    0.9551   21.2035 C   0  0  0  0  0  0  0  0  0  0  0  0
    8.1132    1.4538   20.1826 O   0  0  0  0  0  0  0  0  0  0  0  0
    6.8737   -0.3314   21.0969 C   0  0  0  0  0  0  0  0  0  0  0  0
    5.8596   -0.1969   19.9887 C   0  0  0  0  0  0  0  0  0  0  0  0
    6.0540   -0.7945   18.7701 C   0  0  0  0  0  0  0  0  0  0  0  0
    5.2497   -0.6507   17.6858 N   0  0  0  0  0  0  0  0  0  0  0  0
    4.1854    0.0992   17.8328 C   0  0  0  0  0  0  0  0  0  0  0  0
    3.8347    0.7588   19.0435 C   0  0  0  0  0  0  0  0  0  0  0  0
    2.6567    1.5386   19.1661 C   0  0  0  0  0  0  0  0  0  0  0  0
    2.3488    2.1563   20.3426 C   0  0  0  0  0  0  0  0  0  0  0  0
    3.2262    2.0489   21.4476 C   0  0  0  0  0  0  0  0  0  0  0  0
    4.3813    1.3121   21.3523 C   0  0  0  0  0  0  0  0  0  0  0  0
    4.7056    0.6263   20.1510 C   0  0  0  0  0  0  0  0  0  0  0  0
    5.0468    1.2538   22.2114 H   0  0  0  0  0  0  0  0  0  0  0  0
    2.9857    2.5629   22.3744 H   0  0  0  0  0  0  0  0  0  0  0  0
    1.4356    2.7383   20.4367 H   0  0  0  0  0  0  0  0  0  0  0  0
    2.0153    1.6514   18.2969 H   0  0  0  0  0  0  0  0  0  0  0  0
    3.5220    0.1963   16.9714 H   0  0  0  0  0  0  0  0  0  0  0  0
    6.9118   -1.4472   18.6142 H   0  0  0  0  0  0  0  0  0  0  0  0
    7.5850   -1.1236   20.8371 H   0  0  0  0  0  0  0  0  0  0  0  0
    6.4093   -0.5912   22.0458 H   0  0  0  0  0  0  0  0  0  0  0  0
    7.3244    3.8390   21.9584 C   0  0  0  0  0  0  0  0  0  0  0  0
    7.5619    5.2070   22.0596 C   0  0  0  0  0  0  0  0  0  0  0  0
    6.8448    5.8973   21.6177 H   0  0  0  0  0  0  0  0  0  0  0  0
    6.4303    3.4647   21.4615 H   0  0  0  0  0  0  0  0  0  0  0  0
   10.1183    2.7091   23.5322 H   0  0  0  0  0  0  0  0  0  0  0  0
   10.5383    5.1338   23.6516 H   0  0  0  0  0  0  0  0  0  0  0  0
    9.3473    7.4005   23.8085 H   0  0  0  0  0  0  0  0  0  0  0  0
    8.2203    7.7954   22.5172 H   0  0  0  0  0  0  0  0  0  0  0  0
  1  2  3  0
  2  3  1  0
  3  4  1  0
  4  5  2  0
  5  6  1  0
  6  7  2  0
  7  8  1  0
  8  9  1  0
  9 10  1  0
 10 11  2  0
 11 12  1  0
 12 13  2  0
 13 14  1  0
 14 15  1  0
 14 16  2  0
 16 17  1  0
 13 18  1  0
 12 19  1  0
 11 20  1  0
  9 21  1  0
  9 22  1  0
  8 23  1  0
 23 24  2  0
 23 25  1  0
 25 26  1  0
 26 27  2  0
 27 28  1  0
 28 29  2  0
 29 30  1  0
 30 31  2  0
 31 32  1  0
 32 33  2  0
 33 34  1  0
 34 35  2  0
 34 36  1  0
 33 37  1  0
 32 38  1  0
 31 39  1  0
 29 40  1  0
 27 41  1  0
 25 42  1  0
 25 43  1  0
  7 44  1  0
 44 45  2  0
 45 46  1  0
 44 47  1  0
  6 48  1  0
  5 49  1  0
  3 50  1  0
  3 51  1  0
 45  4  1  0
 16 10  1  0
 35 26  1  0
 35 30  1  0
M  END
>  <cnnaffinities>  (1) 
[6.06185, 6.06474, 6.2769, 5.9838, 6.34928, 6.13382, 6.13355, 5.97873, 6.08505, 6.08501, 5.95424, 5.95786, 6.11866, 6.1524, 6.1214, 6.15657, 6.26375]

>  <score>  (1) 
6.06185

>  <index>  (1) 
35

>  <Smiles>  (1) 
N#CC(c1c(c(c(N(C(c2c(c(c(c(Cl)c2[H])[H])[H])[H])([H])[H])C(=O)C(c2c(nc(c3c(c(c(c(c23)[H])[H])[H])[H])[H])[H])([H])[H])c(c1[H])[H])[H])[H])([H])[H]

>  <h>  (1) 
<NA>

>  <Training>  (1) 
True

>  <Success>  (1) 
True

>  <enamine_searched>  (1) 
False

>  <enamine_id>  (1) 
nan

$$$$
