
     RDKit          3D

 40 43  0  0  0  0  0  0  0  0999 V2000
    5.3141    1.0804   22.6288 C   0  0  0  0  0  0  0  0  0  0  0  0
    5.0225    1.2515   21.2226 N   0  0  0  0  0  0  0  0  0  0  0  0
    3.9272    1.9541   20.8685 N   0  0  0  0  0  0  0  0  0  0  0  0
    3.9323    2.0315   19.5585 C   0  0  0  0  0  0  0  0  0  0  0  0
    5.0640    1.3617   19.0061 C   0  0  0  0  0  0  0  0  0  0  0  0
    5.6162    1.1253   17.7243 C   0  0  0  0  0  0  0  0  0  0  0  0
    6.7477    0.4537   17.5719 N   0  0  0  0  0  0  0  0  0  0  0  0
    7.3759   -0.0126   18.6756 C   0  0  0  0  0  0  0  0  0  0  0  0
    6.9355    0.1393   19.9782 C   0  0  0  0  0  0  0  0  0  0  0  0
    7.6430   -0.4112   21.0738 N   0  0  0  0  0  0  0  0  0  0  0  0
    8.7821    0.1743   21.5659 C   0  0  0  0  0  0  0  0  0  0  0  0
    9.2974    1.1356   21.0246 O   0  0  0  0  0  0  0  0  0  0  0  0
    9.2953   -0.4503   22.8641 C   0  0  2  0  0  0  0  0  0  0  0  0
    8.5970    0.2300   24.0590 C   0  0  0  0  0  0  0  0  0  0  0  0
    9.0134    1.6245   24.2092 N   0  0  0  0  0  0  0  0  0  0  0  0
   10.5656    1.7580   24.7597 S   0  0  0  0  0  0  0  0  0  0  0  0
   10.5791    1.2925   26.1334 O   0  0  0  0  0  0  0  0  0  0  0  0
   11.0323    3.0860   24.4006 O   0  0  0  0  0  0  0  0  0  0  0  0
   11.4489    0.5877   23.7595 C   0  0  0  0  0  0  0  0  0  0  0  0
   12.8382    0.6851   23.8110 C   0  0  0  0  0  0  0  0  0  0  0  0
   13.6146   -0.0699   22.9450 C   0  0  0  0  0  0  0  0  0  0  0  0
   12.9748   -0.9290   22.0558 C   0  0  0  0  0  0  0  0  0  0  0  0
   13.9242   -1.8242   20.9095 Cl  0  0  0  0  0  0  0  0  0  0  0  0
   11.5920   -1.0636   22.0392 C   0  0  0  0  0  0  0  0  0  0  0  0
   10.8047   -0.3263   22.9239 C   0  0  0  0  0  0  0  0  0  0  0  0
    5.7423    0.8658   20.1330 C   0  0  0  0  0  0  0  0  0  0  0  0
    6.1788    1.6866   22.9239 H   0  0  0  0  0  0  0  0  0  0  0  0
    5.5153    0.0261   22.8350 H   0  0  0  0  0  0  0  0  0  0  0  0
    4.4291    1.4099   23.1745 H   0  0  0  0  0  0  0  0  0  0  0  0
    3.1445    2.5577   19.0351 H   0  0  0  0  0  0  0  0  0  0  0  0
    5.1232    1.4924   16.8264 H   0  0  0  0  0  0  0  0  0  0  0  0
    8.2984   -0.5586   18.5036 H   0  0  0  0  0  0  0  0  0  0  0  0
    7.2259   -1.1885   21.5596 H   0  0  0  0  0  0  0  0  0  0  0  0
    9.0060   -1.5085   22.8520 H   0  0  0  0  0  0  0  0  0  0  0  0
    8.8118   -0.3003   24.9938 H   0  0  0  0  0  0  0  0  0  0  0  0
    7.5140    0.2345   23.9349 H   0  0  0  0  0  0  0  0  0  0  0  0
    8.9226    2.2015   23.3736 H   0  0  0  0  0  0  0  0  0  0  0  0
   13.2912    1.3676   24.5257 H   0  0  0  0  0  0  0  0  0  0  0  0
   14.6949    0.0204   22.9387 H   0  0  0  0  0  0  0  0  0  0  0  0
   11.1139   -1.7200   21.3201 H   0  0  0  0  0  0  0  0  0  0  0  0
  1  2  1  0
  2  3  1  0
  3  4  2  0
  4  5  1  0
  5  6  2  0
  6  7  1  0
  7  8  2  0
  8  9  1  0
  9 10  1  0
 10 11  1  0
 11 12  2  0
 11 13  1  0
 13 14  1  0
 14 15  1  0
 15 16  1  0
 16 17  2  0
 16 18  2  0
 16 19  1  0
 19 20  2  0
 20 21  1  0
 21 22  2  0
 22 23  1  0
 22 24  1  0
 24 25  2  0
  9 26  2  0
 26  2  1  0
 26  5  1  0
 25 13  1  0
 25 19  1  0
  1 27  1  0
  1 28  1  0
  1 29  1  0
  4 30  1  0
  6 31  1  0
  8 32  1  0
 10 33  1  0
 13 34  1  6
 14 35  1  0
 14 36  1  0
 15 37  1  0
 20 38  1  0
 21 39  1  0
 24 40  1  0
M  END
$$$$
