
     RDKit          3D

 66 70  0  0  0  0  0  0  0  0999 V2000
    7.1707    4.6483   22.5725 C   0  0  0  0  0  0  0  0  0  0  0  0
    7.9525    3.7015   23.3382 N   0  0  0  0  0  0  0  0  0  0  0  0
    7.6463    3.4571   24.6304 C   0  0  0  0  0  0  0  0  0  0  0  0
    6.7953    4.0767   25.2507 O   0  0  0  0  0  0  0  0  0  0  0  0
    8.3948    2.3135   25.3243 C   0  0  0  0  0  0  0  0  0  0  0  0
    9.2549    1.4920   24.4964 N   0  0  0  0  0  0  0  0  0  0  0  0
    8.8481    0.1299   24.2099 C   0  0  0  0  0  0  0  0  0  0  0  0
    9.4282   -0.3675   22.8602 C   0  0  2  0  0  0  0  0  0  0  0  0
    8.8177    0.4605   21.7039 C   0  0  0  0  0  0  0  0  0  0  0  0
    9.1548    1.5664   21.3290 O   0  0  0  0  0  0  0  0  0  0  0  0
    7.7808   -0.2674   21.1592 N   0  0  0  0  0  0  0  0  0  0  0  0
    6.9419    0.2626   20.1409 C   0  0  0  0  0  0  0  0  0  0  0  0
    7.2123   -0.0140   18.8257 C   0  0  0  0  0  0  0  0  0  0  0  0
    6.4866    0.4439   17.7734 N   0  0  0  0  0  0  0  0  0  0  0  0
    5.4497    1.2043   18.0403 C   0  0  0  0  0  0  0  0  0  0  0  0
    5.0348    1.5543   19.3585 C   0  0  0  0  0  0  0  0  0  0  0  0
    3.9064    2.3860   19.6100 C   0  0  0  0  0  0  0  0  0  0  0  0
    3.5430    2.6897   20.8945 C   0  0  0  0  0  0  0  0  0  0  0  0
    4.2781    2.1778   21.9896 C   0  0  0  0  0  0  0  0  0  0  0  0
    5.3794    1.3875   21.7727 C   0  0  0  0  0  0  0  0  0  0  0  0
    5.7941    1.0611   20.4506 C   0  0  0  0  0  0  0  0  0  0  0  0
    7.5683   -1.5495   21.8093 C   0  0  0  0  0  0  0  0  0  0  0  0
    8.9173   -1.7859   22.5070 C   0  0  2  0  0  0  0  0  0  0  0  0
    8.8878   -2.7946   23.6530 C   0  0  0  0  0  0  0  0  0  0  0  0
    8.6751   -4.0971   23.1599 O   0  0  0  0  0  0  0  0  0  0  0  0
    7.3776   -4.6329   23.3713 C   0  0  0  0  0  0  0  0  0  0  0  0
    7.0836   -5.5936   22.2347 C   0  0  0  0  0  0  0  0  0  0  0  0
    7.2967   -5.3174   24.7274 C   0  0  0  0  0  0  0  0  0  0  0  0
   10.9275   -0.1889   22.9269 C   0  0  0  0  0  0  0  0  0  0  0  0
   11.8201   -1.0584   22.2891 C   0  0  0  0  0  0  0  0  0  0  0  0
   13.1650   -0.7483   22.2715 C   0  0  0  0  0  0  0  0  0  0  0  0
   14.0027   -1.5792   21.6277 F   0  0  0  0  0  0  0  0  0  0  0  0
   13.6878    0.3943   22.8721 C   0  0  0  0  0  0  0  0  0  0  0  0
   12.8070    1.2406   23.5201 C   0  0  0  0  0  0  0  0  0  0  0  0
   11.4404    0.9571   23.5586 C   0  0  0  0  0  0  0  0  0  0  0  0
   10.5368    1.9175   24.2788 C   0  0  0  0  0  0  0  0  0  0  0  0
   10.9045    3.0286   24.6342 O   0  0  0  0  0  0  0  0  0  0  0  0
    7.5893    4.6988   21.5650 H   0  0  0  0  0  0  0  0  0  0  0  0
    7.1816    5.6459   23.0235 H   0  0  0  0  0  0  0  0  0  0  0  0
    6.1294    4.3155   22.4971 H   0  0  0  0  0  0  0  0  0  0  0  0
    8.7705    3.2958   22.9073 H   0  0  0  0  0  0  0  0  0  0  0  0
    8.9713    2.7373   26.1537 H   0  0  0  0  0  0  0  0  0  0  0  0
    7.6263    1.6740   25.7715 H   0  0  0  0  0  0  0  0  0  0  0  0
    9.1741   -0.5354   25.0239 H   0  0  0  0  0  0  0  0  0  0  0  0
    7.7537    0.1029   24.1683 H   0  0  0  0  0  0  0  0  0  0  0  0
    8.0706   -0.6307   18.5676 H   0  0  0  0  0  0  0  0  0  0  0  0
    4.8743    1.5823   17.1921 H   0  0  0  0  0  0  0  0  0  0  0  0
    3.3472    2.7836   18.7643 H   0  0  0  0  0  0  0  0  0  0  0  0
    2.6897    3.3338   21.0907 H   0  0  0  0  0  0  0  0  0  0  0  0
    3.9959    2.4391   23.0077 H   0  0  0  0  0  0  0  0  0  0  0  0
    5.9500    1.0039   22.6150 H   0  0  0  0  0  0  0  0  0  0  0  0
    6.7411   -1.5258   22.5422 H   0  0  0  0  0  0  0  0  0  0  0  0
    7.3266   -2.3192   21.0709 H   0  0  0  0  0  0  0  0  0  0  0  0
    9.5706   -2.2097   21.7445 H   0  0  0  0  0  0  0  0  0  0  0  0
    8.1053   -2.5133   24.3758 H   0  0  0  0  0  0  0  0  0  0  0  0
    9.8490   -2.7794   24.1901 H   0  0  0  0  0  0  0  0  0  0  0  0
    6.6448   -3.8145   23.3363 H   0  0  0  0  0  0  0  0  0  0  0  0
    7.1483   -5.0836   21.2685 H   0  0  0  0  0  0  0  0  0  0  0  0
    6.0736   -6.0057   22.3400 H   0  0  0  0  0  0  0  0  0  0  0  0
    7.7959   -6.4247   22.2343 H   0  0  0  0  0  0  0  0  0  0  0  0
    7.5029   -4.6177   25.5425 H   0  0  0  0  0  0  0  0  0  0  0  0
    6.3000   -5.7430   24.8830 H   0  0  0  0  0  0  0  0  0  0  0  0
    8.0339   -6.1236   24.7801 H   0  0  0  0  0  0  0  0  0  0  0  0
   11.4909   -1.9736   21.8055 H   0  0  0  0  0  0  0  0  0  0  0  0
   14.7545    0.5988   22.8122 H   0  0  0  0  0  0  0  0  0  0  0  0
   13.1702    2.1369   24.0098 H   0  0  0  0  0  0  0  0  0  0  0  0
  1  2  1  0
  2  3  1  0
  3  4  2  0
  3  5  1  0
  5  6  1  0
  6  7  1  0
  8  7  1  1
  8  9  1  0
  9 10  2  0
  9 11  1  0
 11 12  1  0
 12 13  2  0
 13 14  1  0
 14 15  2  0
 15 16  1  0
 16 17  2  0
 17 18  1  0
 18 19  2  0
 19 20  1  0
 20 21  2  0
 11 22  1  0
 22 23  1  0
 23 24  1  0
 24 25  1  0
 25 26  1  0
 26 27  1  0
 26 28  1  0
  8 29  1  0
 29 30  2  0
 30 31  1  0
 31 32  1  0
 31 33  2  0
 33 34  1  0
 34 35  2  0
 35 36  1  0
 36 37  2  0
 36  6  1  0
 23  8  1  0
 35 29  1  0
 21 12  1  0
 21 16  1  0
  1 38  1  0
  1 39  1  0
  1 40  1  0
  2 41  1  0
  5 42  1  0
  5 43  1  0
  7 44  1  0
  7 45  1  0
 13 46  1  0
 15 47  1  0
 17 48  1  0
 18 49  1  0
 19 50  1  0
 20 51  1  0
 22 52  1  0
 22 53  1  0
 23 54  1  6
 24 55  1  0
 24 56  1  0
 26 57  1  0
 27 58  1  0
 27 59  1  0
 27 60  1  0
 28 61  1  0
 28 62  1  0
 28 63  1  0
 30 64  1  0
 33 65  1  0
 34 66  1  0
M  END
$$$$
