
     RDKit          3D

 46 48  0  0  0  0  0  0  0  0999 V2000
  -10.9524    1.7965  -25.2466 C   0  0  0  0  0  0  0  0  0  0  0  0
  -10.4603    0.8454  -24.1563 C   0  0  1  0  0  0  0  0  0  0  0  0
  -11.5700   -0.1251  -23.7359 C   0  0  0  0  0  0  0  0  0  0  0  0
  -11.1375   -1.1109  -22.6294 C   0  0  1  0  0  0  0  0  0  0  0  0
  -11.8287   -2.4734  -22.7723 C   0  0  0  0  0  0  0  0  0  0  0  0
   -9.6775   -1.2771  -22.5386 N   0  0  0  0  0  0  0  0  0  0  0  0
   -9.0798   -0.4781  -21.5181 C   0  0  0  0  0  0  0  0  0  0  0  0
   -9.4081    0.6577  -21.2694 O   0  0  0  0  0  0  0  0  0  0  0  0
   -8.0537   -1.2504  -20.6876 C   0  0  0  0  0  0  0  0  0  0  0  0
   -7.2071   -0.4435  -19.7382 C   0  0  0  0  0  0  0  0  0  0  0  0
   -7.2554   -0.7090  -18.3931 C   0  0  0  0  0  0  0  0  0  0  0  0
   -6.5629   -0.0523  -17.4296 N   0  0  0  0  0  0  0  0  0  0  0  0
   -5.7437    0.8917  -17.8300 C   0  0  0  0  0  0  0  0  0  0  0  0
   -5.5559    1.2495  -19.1926 C   0  0  0  0  0  0  0  0  0  0  0  0
   -4.6303    2.2451  -19.5862 C   0  0  0  0  0  0  0  0  0  0  0  0
   -4.4328    2.5262  -20.9120 C   0  0  0  0  0  0  0  0  0  0  0  0
   -5.1616    1.8303  -21.9031 C   0  0  0  0  0  0  0  0  0  0  0  0
   -6.0788    0.8793  -21.5449 C   0  0  0  0  0  0  0  0  0  0  0  0
   -6.3061    0.5651  -20.1779 C   0  0  0  0  0  0  0  0  0  0  0  0
   -8.9611   -1.2525  -23.8267 C   0  0  1  0  0  0  0  0  0  0  0  0
   -9.2916   -2.4807  -24.6805 C   0  0  0  0  0  0  0  0  0  0  0  0
   -9.2029    0.0719  -24.5995 C   0  0  0  0  0  0  0  0  0  0  0  0
  -11.8114    2.3866  -24.9113 H   0  0  0  0  0  0  0  0  0  0  0  0
  -11.2735    1.2423  -26.1350 H   0  0  0  0  0  0  0  0  0  0  0  0
  -10.1824    2.5014  -25.5724 H   0  0  0  0  0  0  0  0  0  0  0  0
  -10.1903    1.4168  -23.2639 H   0  0  0  0  0  0  0  0  0  0  0  0
  -11.9240   -0.6761  -24.6224 H   0  0  0  0  0  0  0  0  0  0  0  0
  -12.4390    0.4538  -23.3856 H   0  0  0  0  0  0  0  0  0  0  0  0
  -11.4070   -0.6974  -21.6507 H   0  0  0  0  0  0  0  0  0  0  0  0
  -11.3527   -3.2125  -22.1204 H   0  0  0  0  0  0  0  0  0  0  0  0
  -12.8927   -2.4076  -22.5124 H   0  0  0  0  0  0  0  0  0  0  0  0
  -11.7644   -2.8398  -23.7998 H   0  0  0  0  0  0  0  0  0  0  0  0
   -8.6658   -1.9442  -20.0909 H   0  0  0  0  0  0  0  0  0  0  0  0
   -7.4558   -1.8646  -21.3802 H   0  0  0  0  0  0  0  0  0  0  0  0
   -7.8734   -1.5259  -18.0195 H   0  0  0  0  0  0  0  0  0  0  0  0
   -5.1799    1.4201  -17.0599 H   0  0  0  0  0  0  0  0  0  0  0  0
   -4.0887    2.7762  -18.8080 H   0  0  0  0  0  0  0  0  0  0  0  0
   -3.7146    3.2827  -21.2094 H   0  0  0  0  0  0  0  0  0  0  0  0
   -4.9969    2.0599  -22.9528 H   0  0  0  0  0  0  0  0  0  0  0  0
   -6.6457    0.3522  -22.3081 H   0  0  0  0  0  0  0  0  0  0  0  0
   -7.8983   -1.3145  -23.5609 H   0  0  0  0  0  0  0  0  0  0  0  0
   -9.3721   -3.3664  -24.0422 H   0  0  0  0  0  0  0  0  0  0  0  0
  -10.2339   -2.3614  -25.2327 H   0  0  0  0  0  0  0  0  0  0  0  0
   -8.4977   -2.6483  -25.4199 H   0  0  0  0  0  0  0  0  0  0  0  0
   -8.3318    0.7338  -24.4949 H   0  0  0  0  0  0  0  0  0  0  0  0
   -9.2809   -0.1706  -25.6678 H   0  0  0  0  0  0  0  0  0  0  0  0
  1  2  1  0
  2  3  1  0
  3  4  1  0
  4  5  1  0
  4  6  1  0
  6  7  1  0
  7  8  2  0
  7  9  1  0
  9 10  1  0
 10 11  2  0
 11 12  1  0
 12 13  2  0
 13 14  1  0
 14 15  2  0
 15 16  1  0
 16 17  2  0
 17 18  1  0
 18 19  2  0
  6 20  1  0
 20 21  1  0
 20 22  1  0
 22  2  1  0
 19 10  1  0
 19 14  1  0
  1 23  1  0
  1 24  1  0
  1 25  1  0
  2 26  1  1
  3 27  1  0
  3 28  1  0
  4 29  1  1
  5 30  1  0
  5 31  1  0
  5 32  1  0
  9 33  1  0
  9 34  1  0
 11 35  1  0
 13 36  1  0
 15 37  1  0
 16 38  1  0
 17 39  1  0
 18 40  1  0
 20 41  1  1
 21 42  1  0
 21 43  1  0
 21 44  1  0
 22 45  1  0
 22 46  1  0
M  END
$$$$
