
     RDKit          3D

 66 71  0  0  0  0  0  0  0  0999 V2000
    8.1344   -1.4868   24.2207 C   0  0  0  0  0  0  0  0  0  0  0  0
    8.1595   -1.1517   22.7354 C   0  0  1  0  0  0  0  0  0  0  0  0
    6.7714   -1.2505   22.0817 C   0  0  0  0  0  0  0  0  0  0  0  0
    6.8597   -0.3241   20.9775 N   0  0  0  0  0  0  0  0  0  0  0  0
    5.8862   -0.1706   19.9598 C   0  0  0  0  0  0  0  0  0  0  0  0
    6.0884   -0.7778   18.7485 C   0  0  0  0  0  0  0  0  0  0  0  0
    5.2649   -0.6470   17.6806 N   0  0  0  0  0  0  0  0  0  0  0  0
    4.1991    0.1000   17.8374 C   0  0  0  0  0  0  0  0  0  0  0  0
    3.8587    0.7719   19.0476 C   0  0  0  0  0  0  0  0  0  0  0  0
    2.6799    1.5528   19.1694 C   0  0  0  0  0  0  0  0  0  0  0  0
    2.3605    2.1568   20.3530 C   0  0  0  0  0  0  0  0  0  0  0  0
    3.2264    2.0477   21.4643 C   0  0  0  0  0  0  0  0  0  0  0  0
    4.3837    1.3105   21.3734 C   0  0  0  0  0  0  0  0  0  0  0  0
    4.7239    0.6372   20.1605 C   0  0  0  0  0  0  0  0  0  0  0  0
    5.0399    1.2428   22.2378 H   0  0  0  0  0  0  0  0  0  0  0  0
    2.9673    2.5464   22.3968 H   0  0  0  0  0  0  0  0  0  0  0  0
    1.4419    2.7323   20.4428 H   0  0  0  0  0  0  0  0  0  0  0  0
    2.0496    1.6735   18.2940 H   0  0  0  0  0  0  0  0  0  0  0  0
    3.5186    0.1915   16.9874 H   0  0  0  0  0  0  0  0  0  0  0  0
    6.9652   -1.4084   18.6062 H   0  0  0  0  0  0  0  0  0  0  0  0
    7.9380    0.5195   21.0461 C   0  0  0  0  0  0  0  0  0  0  0  0
    8.2010    1.3583   20.2087 O   0  0  0  0  0  0  0  0  0  0  0  0
    8.7067    0.2501   22.3495 C   0  0  1  0  0  0  0  0  0  0  0  0
    8.3420    1.3321   23.3945 C   0  0  0  0  0  0  0  0  0  0  0  0
    8.8620    2.6360   23.0341 N   0  0  0  0  0  0  0  0  0  0  0  0
    7.9987    3.7967   23.1266 C   0  0  0  0  0  0  0  0  0  0  0  0
    7.1896    3.9801   21.8440 C   0  0  0  0  0  0  0  0  0  0  0  0
    6.2494    5.1182   21.8757 N   0  0  0  0  0  0  0  0  0  0  0  0
    5.6269    5.3626   20.5255 C   0  0  0  0  0  0  0  0  0  0  0  0
    4.7400    6.6252   20.5775 C   0  0  0  0  0  0  0  0  0  0  0  0
    4.5652    7.0461   21.9159 O   0  0  0  0  0  0  0  0  0  0  0  0
    4.0532    5.9462   22.6415 C   0  0  0  0  0  0  0  0  0  0  0  0
    5.2122    5.0025   22.9742 C   0  0  0  0  0  0  0  0  0  0  0  0
    4.8864    3.9610   23.0600 H   0  0  0  0  0  0  0  0  0  0  0  0
    5.6755    5.3022   23.9182 H   0  0  0  0  0  0  0  0  0  0  0  0
    3.2962    5.4492   22.0169 H   0  0  0  0  0  0  0  0  0  0  0  0
    3.5590    6.3138   23.5465 H   0  0  0  0  0  0  0  0  0  0  0  0
    5.1596    7.4683   20.0215 H   0  0  0  0  0  0  0  0  0  0  0  0
    3.7545    6.4049   20.1376 H   0  0  0  0  0  0  0  0  0  0  0  0
    5.0321    4.4816   20.2505 H   0  0  0  0  0  0  0  0  0  0  0  0
    6.4222    5.4829   19.7831 H   0  0  0  0  0  0  0  0  0  0  0  0
    6.7938    5.9751   22.0776 H   0  0  0  0  0  0  0  0  0  0  0  0
    6.6258    3.0644   21.6442 H   0  0  0  0  0  0  0  0  0  0  0  0
    7.8691    4.0954   20.9980 H   0  0  0  0  0  0  0  0  0  0  0  0
    7.3378    3.6458   23.9879 H   0  0  0  0  0  0  0  0  0  0  0  0
    8.6465    4.6526   23.3240 H   0  0  0  0  0  0  0  0  0  0  0  0
   10.1693    2.8004   22.6768 C   0  0  0  0  0  0  0  0  0  0  0  0
   10.7230    3.8903   22.6121 O   0  0  0  0  0  0  0  0  0  0  0  0
   10.8954    1.5350   22.3284 C   0  0  0  0  0  0  0  0  0  0  0  0
   12.2616    1.6406   22.0762 C   0  0  0  0  0  0  0  0  0  0  0  0
   12.9758    0.5395   21.6481 C   0  0  0  0  0  0  0  0  0  0  0  0
   12.2869   -0.6543   21.4179 C   0  0  0  0  0  0  0  0  0  0  0  0
   13.1286   -2.0011   20.6983 Cl  0  0  0  0  0  0  0  0  0  0  0  0
   10.9197   -0.7546   21.6099 C   0  0  0  0  0  0  0  0  0  0  0  0
   10.2057    0.3298   22.1314 C   0  0  0  0  0  0  0  0  0  0  0  0
   10.4250   -1.6807   21.3293 H   0  0  0  0  0  0  0  0  0  0  0  0
   14.0439    0.5932   21.4606 H   0  0  0  0  0  0  0  0  0  0  0  0
   12.7262    2.6162   22.1943 H   0  0  0  0  0  0  0  0  0  0  0  0
    8.7738    1.0213   24.3537 H   0  0  0  0  0  0  0  0  0  0  0  0
    7.2540    1.4039   23.5119 H   0  0  0  0  0  0  0  0  0  0  0  0
    5.9852   -0.9560   22.7914 H   0  0  0  0  0  0  0  0  0  0  0  0
    6.5458   -2.2605   21.7228 H   0  0  0  0  0  0  0  0  0  0  0  0
    8.7960   -1.8790   22.2308 H   0  0  0  0  0  0  0  0  0  0  0  0
    7.8044   -2.5178   24.3821 H   0  0  0  0  0  0  0  0  0  0  0  0
    7.4291   -0.8322   24.7441 H   0  0  0  0  0  0  0  0  0  0  0  0
    9.1167   -1.3717   24.6922 H   0  0  0  0  0  0  0  0  0  0  0  0
  1  2  1  0
  2  3  1  0
  3  4  1  0
  4  5  1  0
  5  6  2  0
  6  7  1  0
  7  8  2  0
  8  9  1  0
  9 10  2  0
 10 11  1  0
 11 12  2  0
 12 13  1  0
 13 14  2  0
 13 15  1  0
 12 16  1  0
 11 17  1  0
 10 18  1  0
  8 19  1  0
  6 20  1  0
  4 21  1  0
 21 22  2  0
 21 23  1  0
 23 24  1  1
 24 25  1  0
 25 26  1  0
 26 27  1  0
 27 28  1  0
 28 29  1  0
 29 30  1  0
 30 31  1  0
 31 32  1  0
 32 33  1  0
 33 34  1  0
 33 35  1  0
 32 36  1  0
 32 37  1  0
 30 38  1  0
 30 39  1  0
 29 40  1  0
 29 41  1  0
 28 42  1  0
 27 43  1  0
 27 44  1  0
 26 45  1  0
 26 46  1  0
 25 47  1  0
 47 48  2  0
 47 49  1  0
 49 50  2  0
 50 51  1  0
 51 52  2  0
 52 53  1  0
 52 54  1  0
 54 55  2  0
 54 56  1  0
 51 57  1  0
 50 58  1  0
 24 59  1  0
 24 60  1  0
  3 61  1  0
  3 62  1  0
  2 63  1  6
  1 64  1  0
  1 65  1  0
  1 66  1  0
 23  2  1  0
 33 28  1  0
 55 49  1  0
 14  5  1  0
 55 23  1  0
 14  9  1  0
M  CHG  1  28   1
M  END
>  <cnnaffinities>  (1) 
[6.19513, 6.21302, 6.29992, 6.43401, 6.25678]

>  <score>  (1) 
6.19513

>  <index>  (1) 
64

>  <Smiles>  (1) 
C([C@]1(C(N(c2c(nc(c3c(c(c(c(c23)[H])[H])[H])[H])[H])[H])C(=O)[C@]21C(N(C(C([N+]1(C(C(OC(C1([H])[H])([H])[H])([H])[H])([H])[H])[H])([H])[H])([H])[H])C(=O)c1c(c(c(Cl)c(c21)[H])[H])[H])([H])[H])([H])[H])[H])([H])([H])[H]

>  <h>  (1) 
<NA>

>  <Training>  (1) 
True

>  <Success>  (1) 
True

>  <enamine_searched>  (1) 
False

>  <enamine_id>  (1) 
nan

$$$$
