
     RDKit          3D

 72 77  0  0  0  0  0  0  0  0999 V2000
    8.1493   -1.9003   24.0181 C   0  0  0  0  0  0  0  0  0  0  0  0
    8.2064   -1.1907   22.6672 C   0  0  1  0  0  0  0  0  0  0  0  0
    6.9705   -1.4829   21.8038 C   0  0  0  0  0  0  0  0  0  0  0  0
    6.8468   -0.3054   20.9775 N   0  0  0  0  0  0  0  0  0  0  0  0
    5.8834   -0.1675   19.9580 C   0  0  0  0  0  0  0  0  0  0  0  0
    6.0661   -0.8100   18.7620 C   0  0  0  0  0  0  0  0  0  0  0  0
    5.2545   -0.6665   17.6877 N   0  0  0  0  0  0  0  0  0  0  0  0
    4.1984    0.0991   17.8390 C   0  0  0  0  0  0  0  0  0  0  0  0
    3.8573    0.7670   19.0504 C   0  0  0  0  0  0  0  0  0  0  0  0
    2.6730    1.5394   19.1780 C   0  0  0  0  0  0  0  0  0  0  0  0
    2.3477    2.1329   20.3657 C   0  0  0  0  0  0  0  0  0  0  0  0
    3.2078    2.0158   21.4813 C   0  0  0  0  0  0  0  0  0  0  0  0
    4.3651    1.2832   21.3849 C   0  0  0  0  0  0  0  0  0  0  0  0
    4.7221    0.6386   20.1603 C   0  0  0  0  0  0  0  0  0  0  0  0
    5.0102    1.1936   22.2554 H   0  0  0  0  0  0  0  0  0  0  0  0
    2.9511    2.5095   22.4168 H   0  0  0  0  0  0  0  0  0  0  0  0
    1.4217    2.6976   20.4521 H   0  0  0  0  0  0  0  0  0  0  0  0
    2.0413    1.6623   18.3051 H   0  0  0  0  0  0  0  0  0  0  0  0
    3.5251    0.2025   16.9860 H   0  0  0  0  0  0  0  0  0  0  0  0
    6.9334   -1.4579   18.6297 H   0  0  0  0  0  0  0  0  0  0  0  0
    7.5977    0.7642   21.3937 C   0  0  0  0  0  0  0  0  0  0  0  0
    7.6308    1.8377   20.8284 O   0  0  0  0  0  0  0  0  0  0  0  0
    8.3464    0.3620   22.6780 C   0  0  1  0  0  0  0  0  0  0  0  0
    7.6686    0.9927   23.9187 C   0  0  0  0  0  0  0  0  0  0  0  0
    7.8431    2.4289   23.9906 N   0  0  0  0  0  0  0  0  0  0  0  0
    6.7253    3.3067   24.2898 C   0  0  0  0  0  0  0  0  0  0  0  0
    6.3227    4.1211   23.0553 C   0  0  0  0  0  0  0  0  0  0  0  0
    5.1739    5.0329   23.3088 N   0  0  1  0  0  0  0  0  0  0  0  0
    5.4807    6.0918   24.3593 C   0  0  0  0  0  0  0  0  0  0  0  0
    4.6140    7.3326   24.1279 C   0  0  0  0  0  0  0  0  0  0  0  0
    3.3499    6.9629   23.6306 O   0  0  0  0  0  0  0  0  0  0  0  0
    3.3869    6.4704   22.2826 C   0  0  0  0  0  0  0  0  0  0  0  0
    2.1459    5.5967   22.1538 C   0  0  0  0  0  0  0  0  0  0  0  0
    2.1625    4.7950   22.9002 H   0  0  0  0  0  0  0  0  0  0  0  0
    2.0811    5.1515   21.1542 H   0  0  0  0  0  0  0  0  0  0  0  0
    1.2517    6.2002   22.3274 H   0  0  0  0  0  0  0  0  0  0  0  0
    3.3172    7.6340   21.2950 C   0  0  0  0  0  0  0  0  0  0  0  0
    2.4169    8.2279   21.4743 H   0  0  0  0  0  0  0  0  0  0  0  0
    3.2883    7.2489   20.2692 H   0  0  0  0  0  0  0  0  0  0  0  0
    4.1868    8.2937   21.3827 H   0  0  0  0  0  0  0  0  0  0  0  0
    4.6713    5.6564   22.0412 C   0  0  0  0  0  0  0  0  0  0  0  0
    5.4654    6.2933   21.6339 H   0  0  0  0  0  0  0  0  0  0  0  0
    4.4918    4.8663   21.3038 H   0  0  0  0  0  0  0  0  0  0  0  0
    4.4389    7.8607   25.0707 H   0  0  0  0  0  0  0  0  0  0  0  0
    5.1235    8.0252   23.4428 H   0  0  0  0  0  0  0  0  0  0  0  0
    5.2831    5.6627   25.3442 H   0  0  0  0  0  0  0  0  0  0  0  0
    6.5449    6.3450   24.3039 H   0  0  0  0  0  0  0  0  0  0  0  0
    4.4073    4.4403   23.6798 H   0  0  0  0  0  0  0  0  0  0  0  0
    7.1795    4.7128   22.7167 H   0  0  0  0  0  0  0  0  0  0  0  0
    6.0684    3.4459   22.2305 H   0  0  0  0  0  0  0  0  0  0  0  0
    7.0363    3.9687   25.1037 H   0  0  0  0  0  0  0  0  0  0  0  0
    5.8864    2.6922   24.6434 H   0  0  0  0  0  0  0  0  0  0  0  0
    9.0421    3.0239   23.7350 C   0  0  0  0  0  0  0  0  0  0  0  0
    9.2390    4.2180   23.9359 O   0  0  0  0  0  0  0  0  0  0  0  0
   10.0956    2.1319   23.1551 C   0  0  0  0  0  0  0  0  0  0  0  0
   11.4093    2.5968   23.1317 C   0  0  0  0  0  0  0  0  0  0  0  0
   12.4208    1.8489   22.5583 C   0  0  0  0  0  0  0  0  0  0  0  0
   12.0814    0.6030   22.0182 C   0  0  0  0  0  0  0  0  0  0  0  0
   13.3373   -0.4431   21.4298 Cl  0  0  0  0  0  0  0  0  0  0  0  0
   10.7691    0.1595   21.9679 C   0  0  0  0  0  0  0  0  0  0  0  0
    9.7657    0.8777   22.6234 C   0  0  0  0  0  0  0  0  0  0  0  0
   10.5202   -0.7054   21.3550 H   0  0  0  0  0  0  0  0  0  0  0  0
   13.4342    2.2471   22.4680 H   0  0  0  0  0  0  0  0  0  0  0  0
   11.6009    3.5677   23.5761 H   0  0  0  0  0  0  0  0  0  0  0  0
    6.6018    0.7588   23.9132 H   0  0  0  0  0  0  0  0  0  0  0  0
    8.0959    0.5258   24.8107 H   0  0  0  0  0  0  0  0  0  0  0  0
    7.0886   -2.3781   21.1836 H   0  0  0  0  0  0  0  0  0  0  0  0
    6.0756   -1.6176   22.4276 H   0  0  0  0  0  0  0  0  0  0  0  0
    9.0720   -1.5754   22.1272 H   0  0  0  0  0  0  0  0  0  0  0  0
    8.1101   -2.9860   23.8806 H   0  0  0  0  0  0  0  0  0  0  0  0
    7.2459   -1.6173   24.5706 H   0  0  0  0  0  0  0  0  0  0  0  0
    9.0200   -1.6800   24.6460 H   0  0  0  0  0  0  0  0  0  0  0  0
  1  2  1  0
  2  3  1  0
  3  4  1  0
  4  5  1  0
  5  6  2  0
  6  7  1  0
  7  8  2  0
  8  9  1  0
  9 10  2  0
 10 11  1  0
 11 12  2  0
 12 13  1  0
 13 14  2  0
 13 15  1  0
 12 16  1  0
 11 17  1  0
 10 18  1  0
  8 19  1  0
  6 20  1  0
  4 21  1  0
 21 22  2  0
 21 23  1  0
 23 24  1  1
 24 25  1  0
 25 26  1  0
 26 27  1  0
 27 28  1  0
 28 29  1  0
 29 30  1  0
 30 31  1  0
 31 32  1  0
 32 33  1  0
 33 34  1  0
 33 35  1  0
 33 36  1  0
 32 37  1  0
 37 38  1  0
 37 39  1  0
 37 40  1  0
 32 41  1  0
 41 42  1  0
 41 43  1  0
 30 44  1  0
 30 45  1  0
 29 46  1  0
 29 47  1  0
 28 48  1  1
 27 49  1  0
 27 50  1  0
 26 51  1  0
 26 52  1  0
 25 53  1  0
 53 54  2  0
 53 55  1  0
 55 56  2  0
 56 57  1  0
 57 58  2  0
 58 59  1  0
 58 60  1  0
 60 61  2  0
 60 62  1  0
 57 63  1  0
 56 64  1  0
 24 65  1  0
 24 66  1  0
  3 67  1  0
  3 68  1  0
  2 69  1  6
  1 70  1  0
  1 71  1  0
  1 72  1  0
 23  2  1  0
 41 28  1  0
 61 55  1  0
 14  5  1  0
 61 23  1  0
 14  9  1  0
M  CHG  1  28   1
M  END
>  <cnnaffinities>  (1) 
[6.35372, 6.31006, 6.08761, 6.18412, 6.10104, 6.1158, 6.15955, 6.15706, 6.14097]

>  <score>  (1) 
6.35372

>  <index>  (1) 
32

>  <Smiles>  (1) 
C([C@]1(C(N(c2c(nc(c3c(c(c(c(c23)[H])[H])[H])[H])[H])[H])C(=O)[C@]21C(N(C(C([N@+]1(C(C(OC(C([H])([H])[H])(C([H])([H])[H])C1([H])[H])([H])[H])([H])[H])[H])([H])[H])([H])[H])C(=O)c1c(c(c(Cl)c(c21)[H])[H])[H])([H])[H])([H])[H])[H])([H])([H])[H]

>  <h>  (1) 
<NA>

>  <Training>  (1) 
True

>  <Success>  (1) 
True

>  <enamine_searched>  (1) 
False

>  <enamine_id>  (1) 
nan

$$$$
