
     RDKit          3D

 69 74  0  0  0  0  0  0  0  0999 V2000
    2.3920    5.8024   22.1723 C   0  0  0  0  0  0  0  0  0  0  0  0
    3.8364    6.2684   22.2625 C   0  0  1  0  0  0  0  0  0  0  0  0
    4.8047    5.0846   22.2988 C   0  0  0  0  0  0  0  0  0  0  0  0
    6.2483    5.5506   22.3157 N   0  0  1  0  0  0  0  0  0  0  0  0
    7.2317    4.4181   22.2584 C   0  0  0  0  0  0  0  0  0  0  0  0
    7.4353    3.7321   23.6157 C   0  0  0  0  0  0  0  0  0  0  0  0
    8.3763    2.6252   23.5222 N   0  0  0  0  0  0  0  0  0  0  0  0
    7.9451    1.2534   23.7012 C   0  0  0  0  0  0  0  0  0  0  0  0
    8.4829    0.3218   22.5864 C   0  0  2  0  0  0  0  0  0  0  0  0
    7.7923    0.6486   21.2424 C   0  0  0  0  0  0  0  0  0  0  0  0
    8.0079    1.5945   20.5105 O   0  0  0  0  0  0  0  0  0  0  0  0
    6.8511   -0.3215   20.9830 N   0  0  0  0  0  0  0  0  0  0  0  0
    5.8899   -0.1552   19.9553 C   0  0  0  0  0  0  0  0  0  0  0  0
    6.0619   -0.8054   18.7602 C   0  0  0  0  0  0  0  0  0  0  0  0
    5.2374   -0.6694   17.6956 N   0  0  0  0  0  0  0  0  0  0  0  0
    4.1822    0.0941   17.8432 C   0  0  0  0  0  0  0  0  0  0  0  0
    3.8333    0.7578   19.0554 C   0  0  0  0  0  0  0  0  0  0  0  0
    2.6440    1.5258   19.1854 C   0  0  0  0  0  0  0  0  0  0  0  0
    2.3295    2.1297   20.3683 C   0  0  0  0  0  0  0  0  0  0  0  0
    3.2011    2.0176   21.4721 C   0  0  0  0  0  0  0  0  0  0  0  0
    4.3698    1.2984   21.3680 C   0  0  0  0  0  0  0  0  0  0  0  0
    4.7154    0.6414   20.1516 C   0  0  0  0  0  0  0  0  0  0  0  0
    5.0352    1.2216   22.2191 H   0  0  0  0  0  0  0  0  0  0  0  0
    2.9672    2.5259   22.4033 H   0  0  0  0  0  0  0  0  0  0  0  0
    1.4074    2.7056   20.4556 H   0  0  0  0  0  0  0  0  0  0  0  0
    2.0030    1.6382   18.3204 H   0  0  0  0  0  0  0  0  0  0  0  0
    3.5243    0.1862   16.9811 H   0  0  0  0  0  0  0  0  0  0  0  0
    6.9080   -1.4730   18.6133 H   0  0  0  0  0  0  0  0  0  0  0  0
    6.7554   -1.3451   22.0010 C   0  0  0  0  0  0  0  0  0  0  0  0
    8.0470   -1.1634   22.8247 C   0  0  2  0  0  0  0  0  0  0  0  0
    7.8696   -1.6168   24.2793 C   0  0  0  0  0  0  0  0  0  0  0  0
    7.0387   -1.0820   24.7592 H   0  0  0  0  0  0  0  0  0  0  0  0
    7.6336   -2.6873   24.3272 H   0  0  0  0  0  0  0  0  0  0  0  0
    8.7701   -1.4433   24.8810 H   0  0  0  0  0  0  0  0  0  0  0  0
    8.8227   -1.7808   22.3627 H   0  0  0  0  0  0  0  0  0  0  0  0
    6.6768   -2.3347   21.5350 H   0  0  0  0  0  0  0  0  0  0  0  0
    5.8573   -1.2112   22.6281 H   0  0  0  0  0  0  0  0  0  0  0  0
    9.9742    0.5604   22.4602 C   0  0  0  0  0  0  0  0  0  0  0  0
   10.7871   -0.3794   21.8179 C   0  0  0  0  0  0  0  0  0  0  0  0
   12.1463   -0.1548   21.7095 C   0  0  0  0  0  0  0  0  0  0  0  0
   13.1213   -1.3715   20.9378 Cl  0  0  0  0  0  0  0  0  0  0  0  0
   12.7311    1.0256   22.1651 C   0  0  0  0  0  0  0  0  0  0  0  0
   11.9210    1.9895   22.7325 C   0  0  0  0  0  0  0  0  0  0  0  0
   10.5497    1.7754   22.8610 C   0  0  0  0  0  0  0  0  0  0  0  0
    9.6982    2.9154   23.3496 C   0  0  0  0  0  0  0  0  0  0  0  0
   10.1528    4.0378   23.5321 O   0  0  0  0  0  0  0  0  0  0  0  0
   12.3133    2.9401   23.0782 H   0  0  0  0  0  0  0  0  0  0  0  0
   13.7940    1.1927   22.0355 H   0  0  0  0  0  0  0  0  0  0  0  0
   10.3788   -1.2700   21.3527 H   0  0  0  0  0  0  0  0  0  0  0  0
    8.2943    0.8647   24.6721 H   0  0  0  0  0  0  0  0  0  0  0  0
    6.8504    1.2396   23.6761 H   0  0  0  0  0  0  0  0  0  0  0  0
    6.4881    3.3162   23.9789 H   0  0  0  0  0  0  0  0  0  0  0  0
    7.8129    4.4524   24.3504 H   0  0  0  0  0  0  0  0  0  0  0  0
    6.8770    3.6856   21.5235 H   0  0  0  0  0  0  0  0  0  0  0  0
    8.1871    4.8225   21.9045 H   0  0  0  0  0  0  0  0  0  0  0  0
    6.4614    6.5253   21.1817 C   0  0  0  0  0  0  0  0  0  0  0  0
    5.4126    7.6275   21.2051 C   0  0  0  0  0  0  0  0  0  0  0  0
    4.1018    7.1082   21.1516 O   0  0  0  0  0  0  0  0  0  0  0  0
    5.5215    8.2753   20.3300 H   0  0  0  0  0  0  0  0  0  0  0  0
    5.5486    8.2359   22.1164 H   0  0  0  0  0  0  0  0  0  0  0  0
    6.3967    5.9748   20.2372 H   0  0  0  0  0  0  0  0  0  0  0  0
    7.4661    6.9465   21.2750 H   0  0  0  0  0  0  0  0  0  0  0  0
    6.4212    6.0614   23.2089 H   0  0  0  0  0  0  0  0  0  0  0  0
    4.6068    4.4871   23.1954 H   0  0  0  0  0  0  0  0  0  0  0  0
    4.6515    4.4532   21.4121 H   0  0  0  0  0  0  0  0  0  0  0  0
    3.9937    6.8584   23.1845 H   0  0  0  0  0  0  0  0  0  0  0  0
    1.7035    6.6527   22.1552 H   0  0  0  0  0  0  0  0  0  0  0  0
    2.2346    5.2142   21.2582 H   0  0  0  0  0  0  0  0  0  0  0  0
    2.1483    5.1661   23.0321 H   0  0  0  0  0  0  0  0  0  0  0  0
  1  2  1  0
  2  3  1  0
  3  4  1  0
  4  5  1  0
  5  6  1  0
  6  7  1  0
  7  8  1  0
  9  8  1  1
  9 10  1  0
 10 11  2  0
 10 12  1  0
 12 13  1  0
 13 14  2  0
 14 15  1  0
 15 16  2  0
 16 17  1  0
 17 18  2  0
 18 19  1  0
 19 20  2  0
 20 21  1  0
 21 22  2  0
 21 23  1  0
 20 24  1  0
 19 25  1  0
 18 26  1  0
 16 27  1  0
 14 28  1  0
 12 29  1  0
 29 30  1  0
 30 31  1  0
 31 32  1  0
 31 33  1  0
 31 34  1  0
 30 35  1  6
 29 36  1  0
 29 37  1  0
  9 38  1  0
 38 39  2  0
 39 40  1  0
 40 41  1  0
 40 42  2  0
 42 43  1  0
 43 44  2  0
 44 45  1  0
 45 46  2  0
 43 47  1  0
 42 48  1  0
 39 49  1  0
  8 50  1  0
  8 51  1  0
  6 52  1  0
  6 53  1  0
  5 54  1  0
  5 55  1  0
  4 56  1  0
 56 57  1  0
 57 58  1  0
 57 59  1  0
 57 60  1  0
 56 61  1  0
 56 62  1  0
  4 63  1  1
  3 64  1  0
  3 65  1  0
  2 66  1  1
  1 67  1  0
  1 68  1  0
  1 69  1  0
 58  2  1  0
 45  7  1  0
 30  9  1  0
 44 38  1  0
 22 13  1  0
 22 17  1  0
M  CHG  1   4   1
M  END
>  <cnnaffinities>  (1) 
[6.52484, 6.5757, 6.4464]

>  <score>  (1) 
6.52484

>  <index>  (1) 
23

>  <Smiles>  (1) 
C([C@]1(C([N@@+](C(C(N2C([C@@]3(C(=O)N(c4c(nc(c5c(c(c(c(c45)[H])[H])[H])[H])[H])[H])C([C@@]3(C([H])([H])[H])[H])([H])[H])c3c(c(Cl)c(c(c3C2=O)[H])[H])[H])([H])[H])([H])[H])([H])[H])(C(C(O1)([H])[H])([H])[H])[H])([H])[H])[H])([H])([H])[H]

>  <h>  (1) 
<NA>

>  <Training>  (1) 
True

>  <Success>  (1) 
True

>  <enamine_searched>  (1) 
False

>  <enamine_id>  (1) 
nan

$$$$
