
     RDKit          3D

 58 63  0  0  0  0  0  0  0  0999 V2000
    7.8058    6.0970   28.2260 C   0  0  0  0  0  0  0  0  0  0  0  0
    7.4291    5.2201   27.0747 C   0  0  0  0  0  0  0  0  0  0  0  0
    7.9339    5.3024   25.7512 C   0  0  0  0  0  0  0  0  0  0  0  0
    7.3442    4.2646   25.1117 C   0  0  0  0  0  0  0  0  0  0  0  0
    7.4514    3.7791   23.6965 C   0  0  0  0  0  0  0  0  0  0  0  0
    8.3903    2.6955   23.5158 N   0  0  0  0  0  0  0  0  0  0  0  0
    7.9696    1.3259   23.7233 C   0  0  0  0  0  0  0  0  0  0  0  0
    8.4485    0.4081   22.5775 C   0  0  2  0  0  0  0  0  0  0  0  0
    7.6808    0.7591   21.2956 C   0  0  0  0  0  0  0  0  0  0  0  0
    7.7348    1.7961   20.6690 O   0  0  0  0  0  0  0  0  0  0  0  0
    6.8756   -0.3014   20.9555 N   0  0  0  0  0  0  0  0  0  0  0  0
    5.8926   -0.1601   19.9523 C   0  0  0  0  0  0  0  0  0  0  0  0
    6.0726   -0.8034   18.7578 C   0  0  0  0  0  0  0  0  0  0  0  0
    5.2548   -0.6686   17.6876 N   0  0  0  0  0  0  0  0  0  0  0  0
    4.1968    0.0968   17.8332 C   0  0  0  0  0  0  0  0  0  0  0  0
    3.8643    0.7753   19.0428 C   0  0  0  0  0  0  0  0  0  0  0  0
    2.6820    1.5529   19.1659 C   0  0  0  0  0  0  0  0  0  0  0  0
    2.3585    2.1506   20.3549 C   0  0  0  0  0  0  0  0  0  0  0  0
    3.2169    2.0283   21.4708 C   0  0  0  0  0  0  0  0  0  0  0  0
    4.3745    1.2926   21.3756 C   0  0  0  0  0  0  0  0  0  0  0  0
    4.7278    0.6454   20.1517 C   0  0  0  0  0  0  0  0  0  0  0  0
    5.0188    1.1994   22.2456 H   0  0  0  0  0  0  0  0  0  0  0  0
    2.9594    2.5216   22.4043 H   0  0  0  0  0  0  0  0  0  0  0  0
    1.4406    2.7265   20.4476 H   0  0  0  0  0  0  0  0  0  0  0  0
    2.0486    1.6744   18.2942 H   0  0  0  0  0  0  0  0  0  0  0  0
    3.5218    0.1915   16.9803 H   0  0  0  0  0  0  0  0  0  0  0  0
    6.9376   -1.4541   18.6275 H   0  0  0  0  0  0  0  0  0  0  0  0
    6.9011   -1.4028   21.8831 C   0  0  0  0  0  0  0  0  0  0  0  0
    8.0803   -1.0884   22.8192 C   0  0  2  0  0  0  0  0  0  0  0  0
    7.7870   -1.5010   24.2615 C   0  0  0  0  0  0  0  0  0  0  0  0
    7.5743   -2.5733   24.3186 H   0  0  0  0  0  0  0  0  0  0  0  0
    8.6282   -1.3003   24.9336 H   0  0  0  0  0  0  0  0  0  0  0  0
    6.9104   -0.9716   24.6498 H   0  0  0  0  0  0  0  0  0  0  0  0
    8.9331   -1.6807   22.4928 H   0  0  0  0  0  0  0  0  0  0  0  0
    5.9575   -1.4678   22.4435 H   0  0  0  0  0  0  0  0  0  0  0  0
    7.0312   -2.3470   21.3419 H   0  0  0  0  0  0  0  0  0  0  0  0
    9.9344    0.6661   22.3863 C   0  0  0  0  0  0  0  0  0  0  0  0
   10.7482   -0.2857   21.7635 C   0  0  0  0  0  0  0  0  0  0  0  0
   12.1118   -0.0715   21.7055 C   0  0  0  0  0  0  0  0  0  0  0  0
   12.8879   -1.0581   21.2227 F   0  0  0  0  0  0  0  0  0  0  0  0
   12.7051    1.1378   22.0563 C   0  0  0  0  0  0  0  0  0  0  0  0
   11.8867    2.1219   22.5784 C   0  0  0  0  0  0  0  0  0  0  0  0
   10.5289    1.8771   22.7811 C   0  0  0  0  0  0  0  0  0  0  0  0
    9.7076    3.0089   23.3046 C   0  0  0  0  0  0  0  0  0  0  0  0
   10.1576    4.1352   23.4640 O   0  0  0  0  0  0  0  0  0  0  0  0
   12.2631    3.1013   22.8560 H   0  0  0  0  0  0  0  0  0  0  0  0
   13.7690    1.2816   21.8880 H   0  0  0  0  0  0  0  0  0  0  0  0
   10.3483   -1.1897   21.3098 H   0  0  0  0  0  0  0  0  0  0  0  0
    8.3923    0.9531   24.6653 H   0  0  0  0  0  0  0  0  0  0  0  0
    6.8772    1.3018   23.8059 H   0  0  0  0  0  0  0  0  0  0  0  0
    6.4785    3.4381   23.3237 H   0  0  0  0  0  0  0  0  0  0  0  0
    7.7982    4.5996   23.0626 H   0  0  0  0  0  0  0  0  0  0  0  0
    6.5730    3.5867   25.9679 O   0  0  0  0  0  0  0  0  0  0  0  0
    6.6212    4.1919   27.2087 N   0  0  0  0  0  0  0  0  0  0  0  0
    8.6656    5.9805   25.3375 H   0  0  0  0  0  0  0  0  0  0  0  0
    7.1605    6.9748   28.3272 H   0  0  0  0  0  0  0  0  0  0  0  0
    8.8306    6.4565   28.0939 H   0  0  0  0  0  0  0  0  0  0  0  0
    7.7620    5.5428   29.1643 H   0  0  0  0  0  0  0  0  0  0  0  0
  1  2  1  0
  2  3  1  0
  3  4  2  0
  4  5  1  0
  5  6  1  0
  6  7  1  0
  8  7  1  1
  8  9  1  0
  9 10  2  0
  9 11  1  0
 11 12  1  0
 12 13  2  0
 13 14  1  0
 14 15  2  0
 15 16  1  0
 16 17  2  0
 17 18  1  0
 18 19  2  0
 19 20  1  0
 20 21  2  0
 20 22  1  0
 19 23  1  0
 18 24  1  0
 17 25  1  0
 15 26  1  0
 13 27  1  0
 11 28  1  0
 28 29  1  0
 29 30  1  0
 30 31  1  0
 30 32  1  0
 30 33  1  0
 29 34  1  6
 28 35  1  0
 28 36  1  0
  8 37  1  0
 37 38  2  0
 38 39  1  0
 39 40  1  0
 39 41  2  0
 41 42  1  0
 42 43  2  0
 43 44  1  0
 44 45  2  0
 42 46  1  0
 41 47  1  0
 38 48  1  0
  7 49  1  0
  7 50  1  0
  5 51  1  0
  5 52  1  0
  4 53  1  0
 53 54  1  0
  3 55  1  0
  1 56  1  0
  1 57  1  0
  1 58  1  0
 54  2  2  0
 44  6  1  0
 29  8  1  0
 43 37  1  0
 21 12  1  0
 21 16  1  0
M  END
>  <cnnaffinities>  (1) 
[6.06447, 6.17484, 6.06375, 5.98897, 6.13699, 6.17443, 6.12298]

>  <score>  (1) 
6.06447

>  <index>  (1) 
9

>  <Smiles>  (1) 
C(c1c(c(C(N2C([C@@]3(C(=O)N(c4c(nc(c5c(c(c(c(c45)[H])[H])[H])[H])[H])[H])C([C@@]3(C([H])([H])[H])[H])([H])[H])c3c(c(F)c(c(c3C2=O)[H])[H])[H])([H])[H])([H])[H])on1)[H])([H])([H])[H]

>  <h>  (1) 
<NA>

>  <Training>  (1) 
True

>  <Success>  (1) 
True

>  <enamine_searched>  (1) 
False

>  <enamine_id>  (1) 
nan

$$$$
