
     RDKit          3D

 58 62  0  0  0  0  0  0  0  0999 V2000
    5.8434    4.9721   20.8092 C   0  0  0  0  0  0  0  0  0  0  0  0
    6.5446    4.0393   21.7087 N   0  0  0  0  0  0  0  0  0  0  0  0
    7.6371    4.6917   22.4785 C   0  0  0  0  0  0  0  0  0  0  0  0
    8.1248    3.8508   23.6593 C   0  0  0  0  0  0  0  0  0  0  0  0
    8.8334    2.6394   23.2712 N   0  0  0  0  0  0  0  0  0  0  0  0
    8.2609    1.3339   23.5403 C   0  0  0  0  0  0  0  0  0  0  0  0
    8.6182    0.2897   22.4456 C   0  0  2  0  0  0  0  0  0  0  0  0
    7.7488    0.6853   21.2360 C   0  0  0  0  0  0  0  0  0  0  0  0
    7.7207    1.7855   20.6894 O   0  0  0  0  0  0  0  0  0  0  0  0
    6.8801   -0.3350   20.9542 N   0  0  0  0  0  0  0  0  0  0  0  0
    5.9131   -0.1493   19.9309 C   0  0  0  0  0  0  0  0  0  0  0  0
    6.1395   -0.7117   18.7036 C   0  0  0  0  0  0  0  0  0  0  0  0
    5.3121   -0.5665   17.6419 N   0  0  0  0  0  0  0  0  0  0  0  0
    4.2367    0.1659   17.8158 C   0  0  0  0  0  0  0  0  0  0  0  0
    3.8968    0.8231   19.0333 C   0  0  0  0  0  0  0  0  0  0  0  0
    2.7322    1.6239   19.1627 C   0  0  0  0  0  0  0  0  0  0  0  0
    2.4263    2.2293   20.3513 C   0  0  0  0  0  0  0  0  0  0  0  0
    3.2892    2.0892   21.4626 C   0  0  0  0  0  0  0  0  0  0  0  0
    4.4358    1.3370   21.3575 C   0  0  0  0  0  0  0  0  0  0  0  0
    4.7665    0.6720   20.1393 C   0  0  0  0  0  0  0  0  0  0  0  0
    5.0982    1.2494   22.2169 H   0  0  0  0  0  0  0  0  0  0  0  0
    3.0431    2.5801   22.4015 H   0  0  0  0  0  0  0  0  0  0  0  0
    1.5280    2.8321   20.4424 H   0  0  0  0  0  0  0  0  0  0  0  0
    2.1050    1.7599   18.2854 H   0  0  0  0  0  0  0  0  0  0  0  0
    3.5593    0.2674   16.9656 H   0  0  0  0  0  0  0  0  0  0  0  0
    7.0377   -1.3033   18.5342 H   0  0  0  0  0  0  0  0  0  0  0  0
    6.7147   -1.2419   22.0778 C   0  0  0  0  0  0  0  0  0  0  0  0
    8.0675   -1.1287   22.7953 C   0  0  2  0  0  0  0  0  0  0  0  0
    8.0118   -1.4689   24.2816 C   0  0  0  0  0  0  0  0  0  0  0  0
    8.9920   -1.3472   24.7549 H   0  0  0  0  0  0  0  0  0  0  0  0
    7.3042   -0.8176   24.8049 H   0  0  0  0  0  0  0  0  0  0  0  0
    7.6836   -2.4996   24.4442 H   0  0  0  0  0  0  0  0  0  0  0  0
    8.7194   -1.8512   22.3056 H   0  0  0  0  0  0  0  0  0  0  0  0
    6.4972   -2.2573   21.7316 H   0  0  0  0  0  0  0  0  0  0  0  0
    5.8907   -0.9268   22.7391 H   0  0  0  0  0  0  0  0  0  0  0  0
   10.1230    0.3351   22.1884 C   0  0  0  0  0  0  0  0  0  0  0  0
   10.8680   -0.7818   21.7679 C   0  0  0  0  0  0  0  0  0  0  0  0
   12.2379   -0.6849   21.6296 C   0  0  0  0  0  0  0  0  0  0  0  0
   12.9305   -1.7682   21.2423 F   0  0  0  0  0  0  0  0  0  0  0  0
   12.9315    0.4980   21.8514 C   0  0  0  0  0  0  0  0  0  0  0  0
   12.2048    1.6097   22.2207 C   0  0  0  0  0  0  0  0  0  0  0  0
   10.8217    1.5358   22.3988 C   0  0  0  0  0  0  0  0  0  0  0  0
   10.1197    2.7870   22.8365 C   0  0  0  0  0  0  0  0  0  0  0  0
   10.6833    3.8789   22.8061 O   0  0  0  0  0  0  0  0  0  0  0  0
   12.6934    2.5610   22.4083 H   0  0  0  0  0  0  0  0  0  0  0  0
   14.0057    0.5347   21.7144 H   0  0  0  0  0  0  0  0  0  0  0  0
   10.4187   -1.7367   21.5161 H   0  0  0  0  0  0  0  0  0  0  0  0
    7.1693    1.4288   23.5584 H   0  0  0  0  0  0  0  0  0  0  0  0
    8.5938    0.9748   24.5198 H   0  0  0  0  0  0  0  0  0  0  0  0
    7.2858    3.5705   24.3053 H   0  0  0  0  0  0  0  0  0  0  0  0
    8.8276    4.4476   24.2442 H   0  0  0  0  0  0  0  0  0  0  0  0
    8.4871    4.8768   21.8167 H   0  0  0  0  0  0  0  0  0  0  0  0
    7.2949    5.6666   22.8522 H   0  0  0  0  0  0  0  0  0  0  0  0
    6.9206    3.2334   21.1748 H   0  0  0  0  0  0  0  0  0  0  0  0
    5.8366    3.6743   22.3786 H   0  0  0  0  0  0  0  0  0  0  0  0
    5.2894    5.7137   21.3882 H   0  0  0  0  0  0  0  0  0  0  0  0
    5.1426    4.4240   20.1768 H   0  0  0  0  0  0  0  0  0  0  0  0
    6.5569    5.5155   20.1855 H   0  0  0  0  0  0  0  0  0  0  0  0
  1  2  1  0
  2  3  1  0
  3  4  1  0
  4  5  1  0
  5  6  1  0
  7  6  1  1
  7  8  1  0
  8  9  2  0
  8 10  1  0
 10 11  1  0
 11 12  2  0
 12 13  1  0
 13 14  2  0
 14 15  1  0
 15 16  2  0
 16 17  1  0
 17 18  2  0
 18 19  1  0
 19 20  2  0
 19 21  1  0
 18 22  1  0
 17 23  1  0
 16 24  1  0
 14 25  1  0
 12 26  1  0
 10 27  1  0
 27 28  1  0
 28 29  1  0
 29 30  1  0
 29 31  1  0
 29 32  1  0
 28 33  1  6
 27 34  1  0
 27 35  1  0
  7 36  1  0
 36 37  2  0
 37 38  1  0
 38 39  1  0
 38 40  2  0
 40 41  1  0
 41 42  2  0
 42 43  1  0
 43 44  2  0
 41 45  1  0
 40 46  1  0
 37 47  1  0
  6 48  1  0
  6 49  1  0
  4 50  1  0
  4 51  1  0
  3 52  1  0
  3 53  1  0
  2 54  1  0
  2 55  1  0
  1 56  1  0
  1 57  1  0
  1 58  1  0
 43  5  1  0
 28  7  1  0
 42 36  1  0
 20 11  1  0
 20 15  1  0
M  CHG  1   2   1
M  END
>  <cnnaffinities>  (1) 
[5.92199]

>  <score>  (1) 
5.92199

>  <index>  (1) 
93

>  <Smiles>  (1) 
C([N+](C(C(N1C([C@@]2(C(=O)N(c3c(nc(c4c(c(c(c(c34)[H])[H])[H])[H])[H])[H])C([C@@]2(C([H])([H])[H])[H])([H])[H])c2c(c(F)c(c(c2C1=O)[H])[H])[H])([H])[H])([H])[H])([H])[H])([H])[H])([H])([H])[H]

>  <h>  (1) 
<NA>

>  <Training>  (1) 
True

>  <Success>  (1) 
True

>  <enamine_searched>  (1) 
False

>  <enamine_id>  (1) 
nan

$$$$
