
     RDKit          3D

 44 47  0  0  0  0  0  0  0  0999 V2000
    8.0325    1.6100   20.2768 O   0  0  0  0  0  0  0  0  0  0  0  0
    7.7206    0.9707   21.2623 C   0  0  0  0  0  0  0  0  0  0  0  0
    6.8831   -0.3122   21.0850 C   0  0  0  0  0  0  0  0  0  0  0  0
    5.8657   -0.1772   19.9767 C   0  0  0  0  0  0  0  0  0  0  0  0
    6.0394   -0.7987   18.7684 C   0  0  0  0  0  0  0  0  0  0  0  0
    5.2227   -0.6719   17.6866 N   0  0  0  0  0  0  0  0  0  0  0  0
    4.1619    0.0832   17.8292 C   0  0  0  0  0  0  0  0  0  0  0  0
    3.8204    0.7456   19.0393 C   0  0  0  0  0  0  0  0  0  0  0  0
    2.6377    1.5137   19.1708 C   0  0  0  0  0  0  0  0  0  0  0  0
    2.3329    2.1473   20.3427 C   0  0  0  0  0  0  0  0  0  0  0  0
    3.2186    2.0510   21.4385 C   0  0  0  0  0  0  0  0  0  0  0  0
    4.3713    1.3136   21.3413 C   0  0  0  0  0  0  0  0  0  0  0  0
    4.7004    0.6264   20.1431 C   0  0  0  0  0  0  0  0  0  0  0  0
    5.0412    1.2639   22.1945 H   0  0  0  0  0  0  0  0  0  0  0  0
    2.9797    2.5737   22.3595 H   0  0  0  0  0  0  0  0  0  0  0  0
    1.4233    2.7391   20.4302 H   0  0  0  0  0  0  0  0  0  0  0  0
    1.9824    1.6105   18.3133 H   0  0  0  0  0  0  0  0  0  0  0  0
    3.5055    0.1983   16.9608 H   0  0  0  0  0  0  0  0  0  0  0  0
    6.8808   -1.4743   18.6123 H   0  0  0  0  0  0  0  0  0  0  0  0
    6.3981   -0.6165   22.0169 H   0  0  0  0  0  0  0  0  0  0  0  0
    7.5842   -1.1090   20.8046 H   0  0  0  0  0  0  0  0  0  0  0  0
    8.1100    1.3851   22.5064 N   0  0  0  0  0  0  0  0  0  0  0  0
    8.8658    2.6268   22.6550 C   0  0  0  0  0  0  0  0  0  0  0  0
    9.2854    2.6502   24.1248 C   0  0  0  0  0  0  0  0  0  0  0  0
    8.3925    1.6261   24.8359 C   0  0  0  0  0  0  0  0  0  0  0  0
    7.9039    0.6648   23.7465 C   0  0  2  0  0  0  0  0  0  0  0  0
    8.6247   -0.6676   23.7712 C   0  0  0  0  0  0  0  0  0  0  0  0
    7.9814   -1.8018   24.2629 C   0  0  0  0  0  0  0  0  0  0  0  0
    8.6408   -3.0255   24.3102 C   0  0  0  0  0  0  0  0  0  0  0  0
    9.9551   -3.1382   23.8761 C   0  0  0  0  0  0  0  0  0  0  0  0
   10.5817   -1.9926   23.4149 C   0  0  0  0  0  0  0  0  0  0  0  0
   11.8555   -2.0820   22.9960 F   0  0  0  0  0  0  0  0  0  0  0  0
    9.9528   -0.7602   23.3611 C   0  0  0  0  0  0  0  0  0  0  0  0
   10.5037    0.0988   22.9861 H   0  0  0  0  0  0  0  0  0  0  0  0
   10.4953   -4.0795   23.8957 H   0  0  0  0  0  0  0  0  0  0  0  0
    8.1249   -3.9029   24.6808 H   0  0  0  0  0  0  0  0  0  0  0  0
    6.9535   -1.7286   24.6110 H   0  0  0  0  0  0  0  0  0  0  0  0
    6.8349    0.4780   23.8819 H   0  0  0  0  0  0  0  0  0  0  0  0
    7.5502    2.1214   25.3263 H   0  0  0  0  0  0  0  0  0  0  0  0
    8.9089    1.0718   25.6187 H   0  0  0  0  0  0  0  0  0  0  0  0
    9.1566    3.6453   24.5468 H   0  0  0  0  0  0  0  0  0  0  0  0
   10.3464    2.4047   24.2211 H   0  0  0  0  0  0  0  0  0  0  0  0
    9.7296    2.6516   21.9827 H   0  0  0  0  0  0  0  0  0  0  0  0
    8.2400    3.4858   22.3928 H   0  0  0  0  0  0  0  0  0  0  0  0
  1  2  2  0
  2  3  1  0
  3  4  1  0
  4  5  2  0
  5  6  1  0
  6  7  2  0
  7  8  1  0
  8  9  2  0
  9 10  1  0
 10 11  2  0
 11 12  1  0
 12 13  2  0
 12 14  1  0
 11 15  1  0
 10 16  1  0
  9 17  1  0
  7 18  1  0
  5 19  1  0
  3 20  1  0
  3 21  1  0
  2 22  1  0
 22 23  1  0
 23 24  1  0
 24 25  1  0
 25 26  1  0
 26 27  1  0
 27 28  2  0
 28 29  1  0
 29 30  2  0
 30 31  1  0
 31 32  1  0
 31 33  2  0
 33 34  1  0
 30 35  1  0
 29 36  1  0
 28 37  1  0
 26 38  1  1
 25 39  1  0
 25 40  1  0
 24 41  1  0
 24 42  1  0
 23 43  1  0
 23 44  1  0
 13  4  1  0
 26 22  1  0
 33 27  1  0
 13  8  1  0
M  END
>  <cnnaffinities>  (1) 
[5.66257, 5.58651, 5.59941, 5.61438, 5.54768]

>  <score>  (1) 
5.66257

>  <index>  (1) 
33

>  <Smiles>  (1) 
O=C(C(c1c(nc(c2c(c(c(c(c12)[H])[H])[H])[H])[H])[H])([H])[H])N1C(C(C([C@@]1(c1c(c(c(c(F)c1[H])[H])[H])[H])[H])([H])[H])([H])[H])([H])[H]

>  <h>  (1) 
<NA>

>  <Training>  (1) 
True

>  <Success>  (1) 
True

>  <enamine_searched>  (1) 
False

>  <enamine_id>  (1) 
nan

$$$$
