
     RDKit          3D

 65 69  0  0  0  0  0  0  0  0999 V2000
    6.7814    6.1007   20.9171 C   0  0  0  0  0  0  0  0  0  0  0  0
    7.8244    7.0882   21.4310 C   0  0  0  0  0  0  0  0  0  0  0  0
    8.0228    7.1259   22.9292 C   0  0  0  0  0  0  0  0  0  0  0  0
    8.2151    8.1263   23.5744 O   0  0  0  0  0  0  0  0  0  0  0  0
    7.9915    5.8499   23.6783 N   0  0  1  0  0  0  0  0  0  0  0  0
    6.5634    5.4982   24.1857 C   0  0  0  0  0  0  0  0  0  0  0  0
    6.5762    4.0809   24.6924 C   0  0  0  0  0  0  0  0  0  0  0  0
    6.9755    3.1225   23.5778 C   0  0  0  0  0  0  0  0  0  0  0  0
    8.3542    3.4279   23.0311 C   0  0  0  0  0  0  0  0  0  0  0  0
    9.1766    2.4521   22.4325 C   0  0  0  0  0  0  0  0  0  0  0  0
    8.6705    1.1366   22.1694 N   0  0  0  0  0  0  0  0  0  0  0  0
    9.1355    0.0762   23.0528 C   0  0  0  0  0  0  0  0  0  0  0  0
   10.5552   -0.3869   22.7724 C   0  0  0  0  0  0  0  0  0  0  0  0
   11.5563   -0.1075   23.7033 C   0  0  0  0  0  0  0  0  0  0  0  0
   12.8817   -0.4412   23.4551 C   0  0  0  0  0  0  0  0  0  0  0  0
   13.2305   -1.1249   22.2987 C   0  0  0  0  0  0  0  0  0  0  0  0
   12.2199   -1.4723   21.4135 C   0  0  0  0  0  0  0  0  0  0  0  0
   12.6338   -2.4413   20.0341 Cl  0  0  0  0  0  0  0  0  0  0  0  0
   10.8982   -1.0859   21.6144 C   0  0  0  0  0  0  0  0  0  0  0  0
   10.1573   -1.3384   20.8609 H   0  0  0  0  0  0  0  0  0  0  0  0
   14.2569   -1.3996   22.0850 H   0  0  0  0  0  0  0  0  0  0  0  0
   13.6537   -0.1772   24.1690 H   0  0  0  0  0  0  0  0  0  0  0  0
   11.3075    0.4015   24.6290 H   0  0  0  0  0  0  0  0  0  0  0  0
    8.4470   -0.7723   22.9996 H   0  0  0  0  0  0  0  0  0  0  0  0
    9.1129    0.4714   24.0775 H   0  0  0  0  0  0  0  0  0  0  0  0
    7.7542    1.0152   21.1413 C   0  0  0  0  0  0  0  0  0  0  0  0
    7.5991    1.9074   20.3315 O   0  0  0  0  0  0  0  0  0  0  0  0
    6.9229   -0.2778   21.0787 C   0  0  0  0  0  0  0  0  0  0  0  0
    5.8909   -0.1821   19.9968 C   0  0  0  0  0  0  0  0  0  0  0  0
    6.0989   -0.7737   18.7795 C   0  0  0  0  0  0  0  0  0  0  0  0
    5.2922   -0.6421   17.6937 N   0  0  0  0  0  0  0  0  0  0  0  0
    4.2237    0.1060   17.8386 C   0  0  0  0  0  0  0  0  0  0  0  0
    3.8689    0.7652   19.0472 C   0  0  0  0  0  0  0  0  0  0  0  0
    2.7043    1.5647   19.1579 C   0  0  0  0  0  0  0  0  0  0  0  0
    2.3759    2.1641   20.3433 C   0  0  0  0  0  0  0  0  0  0  0  0
    3.2329    2.0332   21.4597 C   0  0  0  0  0  0  0  0  0  0  0  0
    4.3850    1.2911   21.3684 C   0  0  0  0  0  0  0  0  0  0  0  0
    4.7259    0.6227   20.1622 C   0  0  0  0  0  0  0  0  0  0  0  0
    5.0478    1.2265   22.2280 H   0  0  0  0  0  0  0  0  0  0  0  0
    2.9771    2.5294   22.3884 H   0  0  0  0  0  0  0  0  0  0  0  0
    1.4649    2.7449   20.4352 H   0  0  0  0  0  0  0  0  0  0  0  0
    2.0843    1.7040   18.2797 H   0  0  0  0  0  0  0  0  0  0  0  0
    3.5618    0.2034   16.9762 H   0  0  0  0  0  0  0  0  0  0  0  0
    6.9768   -1.4015   18.6269 H   0  0  0  0  0  0  0  0  0  0  0  0
    6.4617   -0.4518   22.0607 H   0  0  0  0  0  0  0  0  0  0  0  0
    7.6110   -1.1134   20.8854 H   0  0  0  0  0  0  0  0  0  0  0  0
   10.5032    2.7301   22.1308 C   0  0  0  0  0  0  0  0  0  0  0  0
   10.9941    4.0236   22.2724 C   0  0  0  0  0  0  0  0  0  0  0  0
   10.1697    5.0224   22.7756 C   0  0  0  0  0  0  0  0  0  0  0  0
    8.8519    4.7235   23.1289 C   0  0  0  0  0  0  0  0  0  0  0  0
   10.5598    6.0297   22.9089 H   0  0  0  0  0  0  0  0  0  0  0  0
   12.0153    4.2509   21.9715 H   0  0  0  0  0  0  0  0  0  0  0  0
   11.1542    1.9275   21.8022 H   0  0  0  0  0  0  0  0  0  0  0  0
    6.9436    2.0861   23.9336 H   0  0  0  0  0  0  0  0  0  0  0  0
    6.2535    3.2026   22.7533 H   0  0  0  0  0  0  0  0  0  0  0  0
    5.5839    3.8281   25.0752 H   0  0  0  0  0  0  0  0  0  0  0  0
    7.2742    3.9928   25.5329 H   0  0  0  0  0  0  0  0  0  0  0  0
    5.8629    5.6092   23.3535 H   0  0  0  0  0  0  0  0  0  0  0  0
    6.2909    6.2126   24.9680 H   0  0  0  0  0  0  0  0  0  0  0  0
    8.4811    6.1390   24.5656 H   0  0  0  0  0  0  0  0  0  0  0  0
    8.8090    6.8331   21.0145 H   0  0  0  0  0  0  0  0  0  0  0  0
    7.5586    8.1098   21.1418 H   0  0  0  0  0  0  0  0  0  0  0  0
    5.7628    6.3881   21.1993 H   0  0  0  0  0  0  0  0  0  0  0  0
    6.9846    5.0814   21.2679 H   0  0  0  0  0  0  0  0  0  0  0  0
    6.8147    6.0908   19.8296 H   0  0  0  0  0  0  0  0  0  0  0  0
  1  2  1  0
  2  3  1  0
  3  4  2  0
  3  5  1  0
  5  6  1  0
  6  7  1  0
  7  8  1  0
  8  9  1  0
  9 10  2  0
 10 11  1  0
 11 12  1  0
 12 13  1  0
 13 14  2  0
 14 15  1  0
 15 16  2  0
 16 17  1  0
 17 18  1  0
 17 19  2  0
 19 20  1  0
 16 21  1  0
 15 22  1  0
 14 23  1  0
 12 24  1  0
 12 25  1  0
 11 26  1  0
 26 27  2  0
 26 28  1  0
 28 29  1  0
 29 30  2  0
 30 31  1  0
 31 32  2  0
 32 33  1  0
 33 34  2  0
 34 35  1  0
 35 36  2  0
 36 37  1  0
 37 38  2  0
 37 39  1  0
 36 40  1  0
 35 41  1  0
 34 42  1  0
 32 43  1  0
 30 44  1  0
 28 45  1  0
 28 46  1  0
 10 47  1  0
 47 48  2  0
 48 49  1  0
 49 50  2  0
 49 51  1  0
 48 52  1  0
 47 53  1  0
  8 54  1  0
  8 55  1  0
  7 56  1  0
  7 57  1  0
  6 58  1  0
  6 59  1  0
  5 60  1  1
  2 61  1  0
  2 62  1  0
  1 63  1  0
  1 64  1  0
  1 65  1  0
 50  5  1  0
 50  9  1  0
 19 13  1  0
 38 29  1  0
 38 33  1  0
M  CHG  1   5   1
M  END
>  <cnnaffinities>  (1) 
[6.28992]

>  <score>  (1) 
6.28992

>  <index>  (1) 
6

>  <Smiles>  (1) 
C(C(C(=O)[N@+]1(C(C(C(c2c(N(C(c3c(c(c(c(Cl)c3[H])[H])[H])[H])([H])[H])C(=O)C(c3c(nc(c4c(c(c(c(c34)[H])[H])[H])[H])[H])[H])([H])[H])c(c(c(c12)[H])[H])[H])([H])[H])([H])[H])([H])[H])[H])([H])[H])([H])([H])[H]

>  <h>  (1) 
<NA>

>  <Training>  (1) 
True

>  <Success>  (1) 
True

>  <enamine_searched>  (1) 
False

>  <enamine_id>  (1) 
nan

$$$$
