
     RDKit          3D

 60 65  0  0  0  0  0  0  0  0999 V2000
    8.6627    6.3356   26.0011 C   0  0  0  0  0  0  0  0  0  0  0  0
    8.7034    5.6388   24.7255 N   0  0  0  0  0  0  0  0  0  0  0  0
    7.9872    4.4879   24.5482 C   0  0  0  0  0  0  0  0  0  0  0  0
    7.2828    3.9728   25.4000 O   0  0  0  0  0  0  0  0  0  0  0  0
    8.0836    3.9170   23.1285 C   0  0  0  0  0  0  0  0  0  0  0  0
    8.8970    2.7202   23.0284 N   0  0  0  0  0  0  0  0  0  0  0  0
    8.3411    1.4326   23.4095 C   0  0  0  0  0  0  0  0  0  0  0  0
    8.6752    0.3175   22.3855 C   0  0  2  0  0  0  0  0  0  0  0  0
    7.9055    0.5607   21.0723 C   0  0  0  0  0  0  0  0  0  0  0  0
    8.1361    1.4010   20.2350 O   0  0  0  0  0  0  0  0  0  0  0  0
    6.8616   -0.3360   20.9896 N   0  0  0  0  0  0  0  0  0  0  0  0
    5.8904   -0.1778   19.9685 C   0  0  0  0  0  0  0  0  0  0  0  0
    6.0919   -0.7758   18.7542 C   0  0  0  0  0  0  0  0  0  0  0  0
    5.2684   -0.6493   17.6835 N   0  0  0  0  0  0  0  0  0  0  0  0
    4.2008    0.0973   17.8338 C   0  0  0  0  0  0  0  0  0  0  0  0
    3.8633    0.7710   19.0435 C   0  0  0  0  0  0  0  0  0  0  0  0
    2.6953    1.5676   19.1596 C   0  0  0  0  0  0  0  0  0  0  0  0
    2.3944    2.1938   20.3362 C   0  0  0  0  0  0  0  0  0  0  0  0
    3.2646    2.0881   21.4436 C   0  0  0  0  0  0  0  0  0  0  0  0
    4.4105    1.3383   21.3534 C   0  0  0  0  0  0  0  0  0  0  0  0
    4.7307    0.6420   20.1528 C   0  0  0  0  0  0  0  0  0  0  0  0
    5.0813    1.2789   22.2078 H   0  0  0  0  0  0  0  0  0  0  0  0
    3.0226    2.6052   22.3666 H   0  0  0  0  0  0  0  0  0  0  0  0
    1.4837    2.7755   20.4295 H   0  0  0  0  0  0  0  0  0  0  0  0
    2.0561    1.6752   18.2902 H   0  0  0  0  0  0  0  0  0  0  0  0
    3.5254    0.1866   16.9793 H   0  0  0  0  0  0  0  0  0  0  0  0
    6.9725   -1.3982   18.6132 H   0  0  0  0  0  0  0  0  0  0  0  0
    6.7324   -1.1960   22.1459 C   0  0  0  0  0  0  0  0  0  0  0  0
    8.1145   -1.0752   22.8030 C   0  0  2  0  0  0  0  0  0  0  0  0
    8.1545   -1.4755   24.2878 C   0  0  0  0  0  0  0  0  0  0  0  0
    7.0304   -0.9667   25.1486 C   0  0  0  0  0  0  0  0  0  0  0  0
    5.8190   -1.5113   25.1758 N   0  0  0  0  0  0  0  0  0  0  0  0
    5.1239   -0.7808   26.0448 N   0  0  0  0  0  0  0  0  0  0  0  0
    5.8851    0.1623   26.5271 N   0  0  0  0  0  0  0  0  0  0  0  0
    7.0993    0.0625   25.9861 N   0  0  0  0  0  0  0  0  0  0  0  0
    8.1211   -2.5663   24.3528 H   0  0  0  0  0  0  0  0  0  0  0  0
    9.1030   -1.1625   24.7302 H   0  0  0  0  0  0  0  0  0  0  0  0
    8.7520   -1.7965   22.2924 H   0  0  0  0  0  0  0  0  0  0  0  0
    5.9318   -0.8730   22.8219 H   0  0  0  0  0  0  0  0  0  0  0  0
    6.5106   -2.2245   21.8459 H   0  0  0  0  0  0  0  0  0  0  0  0
   10.1774    0.3778   22.1467 C   0  0  0  0  0  0  0  0  0  0  0  0
   10.8737   -0.7279   21.6454 C   0  0  0  0  0  0  0  0  0  0  0  0
   12.2401   -0.6608   21.4454 C   0  0  0  0  0  0  0  0  0  0  0  0
   13.0548   -2.0298   20.7592 Cl  0  0  0  0  0  0  0  0  0  0  0  0
   12.9670    0.5025   21.6837 C   0  0  0  0  0  0  0  0  0  0  0  0
   12.2765    1.6182   22.1097 C   0  0  0  0  0  0  0  0  0  0  0  0
   10.9035    1.5643   22.3443 C   0  0  0  0  0  0  0  0  0  0  0  0
   10.2207    2.8446   22.7280 C   0  0  0  0  0  0  0  0  0  0  0  0
   10.7986    3.9270   22.7269 O   0  0  0  0  0  0  0  0  0  0  0  0
   12.7762    2.5675   22.2549 H   0  0  0  0  0  0  0  0  0  0  0  0
   14.0371    0.5318   21.5052 H   0  0  0  0  0  0  0  0  0  0  0  0
   10.3697   -1.6519   21.3866 H   0  0  0  0  0  0  0  0  0  0  0  0
    7.2617    1.5540   23.5230 H   0  0  0  0  0  0  0  0  0  0  0  0
    8.7281    1.1282   24.3905 H   0  0  0  0  0  0  0  0  0  0  0  0
    8.4962    4.6809   22.4651 H   0  0  0  0  0  0  0  0  0  0  0  0
    7.0704    3.6614   22.7913 H   0  0  0  0  0  0  0  0  0  0  0  0
    9.5762    5.6535   24.2050 H   0  0  0  0  0  0  0  0  0  0  0  0
    9.5607    6.9560   26.0876 H   0  0  0  0  0  0  0  0  0  0  0  0
    8.6092    5.6271   26.8337 H   0  0  0  0  0  0  0  0  0  0  0  0
    7.7659    6.9632   26.0779 H   0  0  0  0  0  0  0  0  0  0  0  0
  1  2  1  0
  2  3  1  0
  3  4  2  0
  3  5  1  0
  5  6  1  0
  6  7  1  0
  8  7  1  1
  8  9  1  0
  9 10  2  0
  9 11  1  0
 11 12  1  0
 12 13  2  0
 13 14  1  0
 14 15  2  0
 15 16  1  0
 16 17  2  0
 17 18  1  0
 18 19  2  0
 19 20  1  0
 20 21  2  0
 20 22  1  0
 19 23  1  0
 18 24  1  0
 17 25  1  0
 15 26  1  0
 13 27  1  0
 11 28  1  0
 28 29  1  0
 29 30  1  0
 30 31  1  0
 31 32  1  0
 32 33  2  0
 33 34  1  0
 34 35  1  0
 30 36  1  0
 30 37  1  0
 29 38  1  6
 28 39  1  0
 28 40  1  0
  8 41  1  0
 41 42  2  0
 42 43  1  0
 43 44  1  0
 43 45  2  0
 45 46  1  0
 46 47  2  0
 47 48  1  0
 48 49  2  0
 46 50  1  0
 45 51  1  0
 42 52  1  0
  7 53  1  0
  7 54  1  0
  5 55  1  0
  5 56  1  0
  2 57  1  0
  1 58  1  0
  1 59  1  0
  1 60  1  0
 48  6  1  0
 29  8  1  0
 35 31  2  0
 47 41  1  0
 21 12  1  0
 21 16  1  0
M  CHG  1  34  -1
M  END
>  <cnnaffinities>  (1) 
[6.29353, 6.06818, 6.6135, 6.60785, 6.81452, 6.00303, 6.81922, 6.34508, 6.45893]

>  <score>  (1) 
6.29353

>  <index>  (1) 
42

>  <Smiles>  (1) 
C(N(C(=O)C(N1C([C@@]2(C(=O)N(c3c(nc(c4c(c(c(c(c34)[H])[H])[H])[H])[H])[H])C([C@@]2(C(c2nn[n-]n2)([H])[H])[H])([H])[H])c2c(c(Cl)c(c(c2C1=O)[H])[H])[H])([H])[H])([H])[H])[H])([H])([H])[H]

>  <h>  (1) 
<NA>

>  <Training>  (1) 
True

>  <Success>  (1) 
True

>  <enamine_searched>  (1) 
False

>  <enamine_id>  (1) 
nan

$$$$
