
     RDKit          3D

 67 71  0  0  0  0  0  0  0  0999 V2000
    7.0369    6.4239   22.1687 C   0  0  0  0  0  0  0  0  0  0  0  0
    7.1329    5.5199   23.2982 N   0  0  0  0  0  0  0  0  0  0  0  0
    6.6141    4.2608   23.1707 C   0  0  0  0  0  0  0  0  0  0  0  0
    5.8816    3.9245   22.2572 O   0  0  0  0  0  0  0  0  0  0  0  0
    6.9975    3.2936   24.2915 C   0  0  0  0  0  0  0  0  0  0  0  0
    8.0361    2.3758   23.8508 N   0  0  0  0  0  0  0  0  0  0  0  0
    7.8190    0.9372   23.8238 C   0  0  0  0  0  0  0  0  0  0  0  0
    8.4737    0.2768   22.5793 C   0  0  2  0  0  0  0  0  0  0  0  0
    7.7132    0.6953   21.3020 C   0  0  0  0  0  0  0  0  0  0  0  0
    7.8164    1.7151   20.6654 O   0  0  0  0  0  0  0  0  0  0  0  0
    6.8435   -0.3269   20.9787 N   0  0  0  0  0  0  0  0  0  0  0  0
    5.8878   -0.1724   19.9573 C   0  0  0  0  0  0  0  0  0  0  0  0
    6.0774   -0.7987   18.7534 C   0  0  0  0  0  0  0  0  0  0  0  0
    5.2655   -0.6557   17.6817 N   0  0  0  0  0  0  0  0  0  0  0  0
    4.2042    0.1033   17.8326 C   0  0  0  0  0  0  0  0  0  0  0  0
    3.8602    0.7612   19.0487 C   0  0  0  0  0  0  0  0  0  0  0  0
    2.6810    1.5433   19.1706 C   0  0  0  0  0  0  0  0  0  0  0  0
    2.3559    2.1339   20.3592 C   0  0  0  0  0  0  0  0  0  0  0  0
    3.2168    2.0122   21.4708 C   0  0  0  0  0  0  0  0  0  0  0  0
    4.3808    1.2895   21.3701 C   0  0  0  0  0  0  0  0  0  0  0  0
    4.7240    0.6315   20.1558 C   0  0  0  0  0  0  0  0  0  0  0  0
    5.0500    1.2425   22.2242 H   0  0  0  0  0  0  0  0  0  0  0  0
    2.9717    2.5110   22.4025 H   0  0  0  0  0  0  0  0  0  0  0  0
    1.4369    2.7043   20.4518 H   0  0  0  0  0  0  0  0  0  0  0  0
    2.0573    1.6732   18.2938 H   0  0  0  0  0  0  0  0  0  0  0  0
    3.5394    0.2079   16.9748 H   0  0  0  0  0  0  0  0  0  0  0  0
    6.9495   -1.4365   18.6174 H   0  0  0  0  0  0  0  0  0  0  0  0
    6.9465   -1.5023   21.8054 C   0  0  0  0  0  0  0  0  0  0  0  0
    8.2611   -1.2671   22.5596 C   0  0  2  0  0  0  0  0  0  0  0  0
    8.2806   -1.9614   23.9230 C   0  0  0  0  0  0  0  0  0  0  0  0
    8.5453   -3.7417   23.8399 S   0  0  0  0  0  0  0  0  0  0  0  0
    8.2674   -4.2044   22.4903 O   0  0  0  0  0  0  0  0  0  0  0  0
    7.8479   -4.3509   24.9616 O   0  0  0  0  0  0  0  0  0  0  0  0
   10.1933   -3.8710   24.0932 N   0  0  0  0  0  0  0  0  0  0  0  0
   11.0291   -3.0858   23.1864 C   0  0  0  0  0  0  0  0  0  0  0  0
   10.9899   -2.0087   23.3961 H   0  0  0  0  0  0  0  0  0  0  0  0
   10.7402   -3.2646   22.1439 H   0  0  0  0  0  0  0  0  0  0  0  0
   12.0668   -3.3923   23.3209 H   0  0  0  0  0  0  0  0  0  0  0  0
   10.6272   -3.9269   25.4855 C   0  0  0  0  0  0  0  0  0  0  0  0
   11.6360   -4.3381   25.5031 H   0  0  0  0  0  0  0  0  0  0  0  0
   10.6576   -2.9488   25.9956 H   0  0  0  0  0  0  0  0  0  0  0  0
    9.9588   -4.5974   26.0305 H   0  0  0  0  0  0  0  0  0  0  0  0
    7.3348   -1.8138   24.4592 H   0  0  0  0  0  0  0  0  0  0  0  0
    9.0689   -1.5642   24.5752 H   0  0  0  0  0  0  0  0  0  0  0  0
    9.0593   -1.6772   21.9368 H   0  0  0  0  0  0  0  0  0  0  0  0
    6.0969   -1.5989   22.4982 H   0  0  0  0  0  0  0  0  0  0  0  0
    6.9833   -2.4116   21.2052 H   0  0  0  0  0  0  0  0  0  0  0  0
    9.9168    0.7381   22.5276 C   0  0  0  0  0  0  0  0  0  0  0  0
   10.9000    0.0126   21.8517 C   0  0  0  0  0  0  0  0  0  0  0  0
   12.2135    0.4505   21.8815 C   0  0  0  0  0  0  0  0  0  0  0  0
   13.1425   -0.3129   21.2827 F   0  0  0  0  0  0  0  0  0  0  0  0
   12.6076    1.6455   22.4695 C   0  0  0  0  0  0  0  0  0  0  0  0
   11.6175    2.4061   23.0585 C   0  0  0  0  0  0  0  0  0  0  0  0
   10.2932    1.9708   23.0777 C   0  0  0  0  0  0  0  0  0  0  0  0
    9.2696    2.9040   23.6336 C   0  0  0  0  0  0  0  0  0  0  0  0
    9.5205    4.0892   23.8557 O   0  0  0  0  0  0  0  0  0  0  0  0
   11.8281    3.3749   23.4945 H   0  0  0  0  0  0  0  0  0  0  0  0
   13.6398    1.9835   22.4174 H   0  0  0  0  0  0  0  0  0  0  0  0
   10.6836   -0.8890   21.2854 H   0  0  0  0  0  0  0  0  0  0  0  0
    6.7386    0.7607   23.8123 H   0  0  0  0  0  0  0  0  0  0  0  0
    8.2456    0.4847   24.7309 H   0  0  0  0  0  0  0  0  0  0  0  0
    7.3271    3.8488   25.1757 H   0  0  0  0  0  0  0  0  0  0  0  0
    6.1234    2.6957   24.5546 H   0  0  0  0  0  0  0  0  0  0  0  0
    7.9999    5.5551   23.8163 H   0  0  0  0  0  0  0  0  0  0  0  0
    5.9898    6.6486   21.9574 H   0  0  0  0  0  0  0  0  0  0  0  0
    7.4938    5.9950   21.2705 H   0  0  0  0  0  0  0  0  0  0  0  0
    7.5500    7.3524   22.4260 H   0  0  0  0  0  0  0  0  0  0  0  0
  1  2  1  0
  2  3  1  0
  3  4  2  0
  3  5  1  0
  5  6  1  0
  6  7  1  0
  8  7  1  1
  8  9  1  0
  9 10  2  0
  9 11  1  0
 11 12  1  0
 12 13  2  0
 13 14  1  0
 14 15  2  0
 15 16  1  0
 16 17  2  0
 17 18  1  0
 18 19  2  0
 19 20  1  0
 20 21  2  0
 20 22  1  0
 19 23  1  0
 18 24  1  0
 17 25  1  0
 15 26  1  0
 13 27  1  0
 11 28  1  0
 28 29  1  0
 29 30  1  0
 30 31  1  0
 31 32  2  0
 31 33  2  0
 31 34  1  0
 34 35  1  0
 35 36  1  0
 35 37  1  0
 35 38  1  0
 34 39  1  0
 39 40  1  0
 39 41  1  0
 39 42  1  0
 30 43  1  0
 30 44  1  0
 29 45  1  6
 28 46  1  0
 28 47  1  0
  8 48  1  0
 48 49  2  0
 49 50  1  0
 50 51  1  0
 50 52  2  0
 52 53  1  0
 53 54  2  0
 54 55  1  0
 55 56  2  0
 53 57  1  0
 52 58  1  0
 49 59  1  0
  7 60  1  0
  7 61  1  0
  5 62  1  0
  5 63  1  0
  2 64  1  0
  1 65  1  0
  1 66  1  0
  1 67  1  0
 55  6  1  0
 29  8  1  0
 54 48  1  0
 21 12  1  0
 21 16  1  0
M  END
>  <cnnaffinities>  (1) 
[6.57156, 6.68201, 6.28938, 5.92436, 6.26318, 6.35627, 6.35384]

>  <score>  (1) 
6.57156

>  <index>  (1) 
95

>  <Smiles>  (1) 
C(N(C(=O)C(N1C([C@@]2(C(=O)N(c3c(nc(c4c(c(c(c(c34)[H])[H])[H])[H])[H])[H])C([C@@]2(C(S(=O)(=O)N(C([H])([H])[H])C([H])([H])[H])([H])[H])[H])([H])[H])c2c(c(F)c(c(c2C1=O)[H])[H])[H])([H])[H])([H])[H])[H])([H])([H])[H]

>  <h>  (1) 
<NA>

>  <Training>  (1) 
True

>  <Success>  (1) 
True

>  <enamine_searched>  (1) 
False

>  <enamine_id>  (1) 
nan

$$$$
