
     RDKit          3D

 50 54  0  0  0  0  0  0  0  0999 V2000
   10.0801    0.6763   22.4301 C   0  0  0  0  0  0  0  0  0  0  0  0
    8.6430    0.1613   22.4139 C   0  0  1  0  0  0  0  0  0  0  0  0
    7.8096    0.7188   21.2513 C   0  0  0  0  0  0  0  0  0  0  0  0
    6.8068   -0.3103   21.0194 N   0  0  0  0  0  0  0  0  0  0  0  0
    5.8539   -0.2033   19.9772 C   0  0  0  0  0  0  0  0  0  0  0  0
    6.0548   -0.8281   18.7711 C   0  0  0  0  0  0  0  0  0  0  0  0
    5.2548   -0.6601   17.6889 N   0  0  0  0  0  0  0  0  0  0  0  0
    4.1954    0.0984   17.8386 C   0  0  0  0  0  0  0  0  0  0  0  0
    3.8340    0.7515   19.0525 C   0  0  0  0  0  0  0  0  0  0  0  0
    2.6531    1.5286   19.1788 C   0  0  0  0  0  0  0  0  0  0  0  0
    2.3449    2.1328   20.3660 C   0  0  0  0  0  0  0  0  0  0  0  0
    3.2127    2.0137   21.4753 C   0  0  0  0  0  0  0  0  0  0  0  0
    4.3682    1.2762   21.3757 C   0  0  0  0  0  0  0  0  0  0  0  0
    4.6970    0.6170   20.1609 C   0  0  0  0  0  0  0  0  0  0  0  0
    5.0394    1.1862   22.2242 H   0  0  0  0  0  0  0  0  0  0  0  0
    2.9648    2.5129   22.4077 H   0  0  0  0  0  0  0  0  0  0  0  0
    1.4282    2.7087   20.4620 H   0  0  0  0  0  0  0  0  0  0  0  0
    2.0144    1.6488   18.3105 H   0  0  0  0  0  0  0  0  0  0  0  0
    3.5378    0.2006   16.9767 H   0  0  0  0  0  0  0  0  0  0  0  0
    6.9040   -1.4927   18.6246 H   0  0  0  0  0  0  0  0  0  0  0  0
    7.1678   -1.5431   21.5190 C   0  0  0  0  0  0  0  0  0  0  0  0
    6.5426   -2.5667   21.3195 O   0  0  0  0  0  0  0  0  0  0  0  0
    8.4633   -1.3944   22.3314 C   0  0  1  0  0  0  0  0  0  0  0  0
    9.5636   -2.1182   21.5390 C   0  0  0  0  0  0  0  0  0  0  0  0
   10.7918   -2.2490   22.3168 N   0  0  0  0  0  0  0  0  0  0  0  0
   12.0860   -2.1675   21.6799 C   0  0  0  0  0  0  0  0  0  0  0  0
   12.9216   -0.9933   22.0238 C   0  0  0  0  0  0  0  0  0  0  0  0
   13.7064   -0.1982   22.3305 N   0  0  0  0  0  0  0  0  0  0  0  0
   11.9765   -2.2879   20.5992 H   0  0  0  0  0  0  0  0  0  0  0  0
   12.6962   -2.9763   22.0693 H   0  0  0  0  0  0  0  0  0  0  0  0
   10.7897   -2.7358   23.6056 C   0  0  0  0  0  0  0  0  0  0  0  0
   11.7957   -3.1669   24.1459 O   0  0  0  0  0  0  0  0  0  0  0  0
    9.4757   -2.6488   24.3059 C   0  0  0  0  0  0  0  0  0  0  0  0
    9.3943   -3.1508   25.6043 C   0  0  0  0  0  0  0  0  0  0  0  0
    8.2124   -3.0458   26.3172 C   0  0  0  0  0  0  0  0  0  0  0  0
    7.1235   -2.4203   25.7177 C   0  0  0  0  0  0  0  0  0  0  0  0
    5.9762   -2.3078   26.4100 F   0  0  0  0  0  0  0  0  0  0  0  0
    7.1838   -1.9107   24.4350 C   0  0  0  0  0  0  0  0  0  0  0  0
    8.3697   -2.0350   23.7031 C   0  0  0  0  0  0  0  0  0  0  0  0
    6.3086   -1.4281   24.0102 H   0  0  0  0  0  0  0  0  0  0  0  0
    8.1140   -3.4240   27.3281 H   0  0  0  0  0  0  0  0  0  0  0  0
   10.2851   -3.6096   26.0285 H   0  0  0  0  0  0  0  0  0  0  0  0
    9.1604   -3.1028   21.2602 H   0  0  0  0  0  0  0  0  0  0  0  0
    9.7747   -1.5500   20.6261 H   0  0  0  0  0  0  0  0  0  0  0  0
    8.4234    0.8795   20.3519 H   0  0  0  0  0  0  0  0  0  0  0  0
    7.3374    1.6742   21.5031 H   0  0  0  0  0  0  0  0  0  0  0  0
    8.1504    0.4628   23.3490 H   0  0  0  0  0  0  0  0  0  0  0  0
   10.6463    0.2437   23.2597 H   0  0  0  0  0  0  0  0  0  0  0  0
   10.6034    0.4223   21.5036 H   0  0  0  0  0  0  0  0  0  0  0  0
   10.1013    1.7637   22.5331 H   0  0  0  0  0  0  0  0  0  0  0  0
  1  2  1  0
  2  3  1  0
  3  4  1  0
  4  5  1  0
  5  6  2  0
  6  7  1  0
  7  8  2  0
  8  9  1  0
  9 10  2  0
 10 11  1  0
 11 12  2  0
 12 13  1  0
 13 14  2  0
 13 15  1  0
 12 16  1  0
 11 17  1  0
 10 18  1  0
  8 19  1  0
  6 20  1  0
  4 21  1  0
 21 22  2  0
 21 23  1  0
 23 24  1  6
 24 25  1  0
 25 26  1  0
 26 27  1  0
 27 28  3  0
 26 29  1  0
 26 30  1  0
 25 31  1  0
 31 32  2  0
 31 33  1  0
 33 34  2  0
 34 35  1  0
 35 36  2  0
 36 37  1  0
 36 38  1  0
 38 39  2  0
 38 40  1  0
 35 41  1  0
 34 42  1  0
 24 43  1  0
 24 44  1  0
  3 45  1  0
  3 46  1  0
  2 47  1  1
  1 48  1  0
  1 49  1  0
  1 50  1  0
 23  2  1  0
 39 33  1  0
 14  5  1  0
 39 23  1  0
 14  9  1  0
M  END
>  <cnnaffinities>  (1) 
[6.25598]

>  <score>  (1) 
6.25598

>  <index>  (1) 
5

>  <Smiles>  (1) 
C([C@]1(C(N(c2c(nc(c3c(c(c(c(c23)[H])[H])[H])[H])[H])[H])C(=O)[C@]21C(N(C(C#N)([H])[H])C(=O)c1c(c(c(F)c(c21)[H])[H])[H])([H])[H])([H])[H])[H])([H])([H])[H]

>  <h>  (1) 
<NA>

>  <Training>  (1) 
True

>  <Success>  (1) 
True

>  <enamine_searched>  (1) 
False

>  <enamine_id>  (1) 
nan

$$$$
