
     RDKit          3D

 41 43  0  0  0  0  0  0  0  0999 V2000
    7.9520    1.4396   20.2225 O   0  0  0  0  0  0  0  0  0  0  0  0
    7.7439    0.7952   21.2347 C   0  0  0  0  0  0  0  0  0  0  0  0
    6.8463   -0.4476   21.1629 C   0  0  0  0  0  0  0  0  0  0  0  0
    5.8595   -0.2673   20.0447 C   0  0  0  0  0  0  0  0  0  0  0  0
    6.1134   -0.7976   18.8071 C   0  0  0  0  0  0  0  0  0  0  0  0
    5.3401   -0.6229   17.7037 N   0  0  0  0  0  0  0  0  0  0  0  0
    4.2685    0.1193   17.8497 C   0  0  0  0  0  0  0  0  0  0  0  0
    3.8998    0.7652   19.0619 C   0  0  0  0  0  0  0  0  0  0  0  0
    2.7401    1.5757   19.1608 C   0  0  0  0  0  0  0  0  0  0  0  0
    2.4070    2.1791   20.3424 C   0  0  0  0  0  0  0  0  0  0  0  0
    3.2566    2.0477   21.4638 C   0  0  0  0  0  0  0  0  0  0  0  0
    4.4048    1.2978   21.3866 C   0  0  0  0  0  0  0  0  0  0  0  0
    4.7368    0.5953   20.1923 C   0  0  0  0  0  0  0  0  0  0  0  0
    5.0643    1.2544   22.2523 H   0  0  0  0  0  0  0  0  0  0  0  0
    2.9954    2.5534   22.3907 H   0  0  0  0  0  0  0  0  0  0  0  0
    1.4963    2.7669   20.4257 H   0  0  0  0  0  0  0  0  0  0  0  0
    2.1323    1.7227   18.2720 H   0  0  0  0  0  0  0  0  0  0  0  0
    3.6226    0.2380   16.9773 H   0  0  0  0  0  0  0  0  0  0  0  0
    7.0127   -1.3933   18.6515 H   0  0  0  0  0  0  0  0  0  0  0  0
    7.4897   -1.3165   20.9517 H   0  0  0  0  0  0  0  0  0  0  0  0
    6.3474   -0.6052   22.1253 H   0  0  0  0  0  0  0  0  0  0  0  0
    8.2978    1.1399   22.4549 N   0  0  0  0  0  0  0  0  0  0  0  0
    8.8216    0.1499   23.3908 C   0  0  0  0  0  0  0  0  0  0  0  0
   10.0640   -0.6080   22.8773 C   0  0  0  0  0  0  0  0  0  0  0  0
   10.9038    0.1799   21.8570 C   0  0  0  0  0  0  0  0  0  0  0  0
   11.4598    1.8473   22.3777 S   0  0  0  0  0  0  0  0  0  0  0  0
   10.0469    2.8775   21.8729 C   0  0  0  0  0  0  0  0  0  0  0  0
    8.7824    2.4996   22.6383 C   0  0  1  0  0  0  0  0  0  0  0  0
    7.6595    3.5208   22.4897 C   0  0  0  0  0  0  0  0  0  0  0  0
    6.5784    3.1207   23.1813 F   0  0  0  0  0  0  0  0  0  0  0  0
    7.2795    3.7569   21.2360 F   0  0  0  0  0  0  0  0  0  0  0  0
    8.0642    4.6961   23.0142 F   0  0  0  0  0  0  0  0  0  0  0  0
    9.0441    2.5724   23.6982 H   0  0  0  0  0  0  0  0  0  0  0  0
   10.3104    3.9025   22.1500 H   0  0  0  0  0  0  0  0  0  0  0  0
    9.9014    2.8525   20.7923 H   0  0  0  0  0  0  0  0  0  0  0  0
   10.3285    0.2876   20.9286 H   0  0  0  0  0  0  0  0  0  0  0  0
   11.8264   -0.3704   21.6241 H   0  0  0  0  0  0  0  0  0  0  0  0
   10.6729   -0.8882   23.7450 H   0  0  0  0  0  0  0  0  0  0  0  0
    9.7653   -1.5510   22.3931 H   0  0  0  0  0  0  0  0  0  0  0  0
    9.0733    0.6954   24.3058 H   0  0  0  0  0  0  0  0  0  0  0  0
    8.0389   -0.5566   23.6802 H   0  0  0  0  0  0  0  0  0  0  0  0
  1  2  2  0
  2  3  1  0
  3  4  1  0
  4  5  2  0
  5  6  1  0
  6  7  2  0
  7  8  1  0
  8  9  2  0
  9 10  1  0
 10 11  2  0
 11 12  1  0
 12 13  2  0
 12 14  1  0
 11 15  1  0
 10 16  1  0
  9 17  1  0
  7 18  1  0
  5 19  1  0
  3 20  1  0
  3 21  1  0
  2 22  1  0
 22 23  1  0
 23 24  1  0
 24 25  1  0
 25 26  1  0
 26 27  1  0
 27 28  1  0
 28 29  1  0
 29 30  1  0
 29 31  1  0
 29 32  1  0
 28 33  1  1
 27 34  1  0
 27 35  1  0
 25 36  1  0
 25 37  1  0
 24 38  1  0
 24 39  1  0
 23 40  1  0
 23 41  1  0
 13  4  1  0
 28 22  1  0
 13  8  1  0
M  END
>  <cnnaffinities>  (1) 
[5.27031, 5.27193, 5.27319, 5.47113, 5.46942, 5.47041, 5.46944, 5.27443, 5.33706, 5.31956, 5.34008, 5.29273, 5.29261, 5.29251, 5.40288, 5.33064, 5.331, 5.33098, 5.33099, 5.33098, 5.31831, 5.3183, 5.3183, 5.31829]

>  <score>  (1) 
5.27031

>  <index>  (1) 
56

>  <Smiles>  (1) 
O=C(C(c1c(nc(c2c(c(c(c(c12)[H])[H])[H])[H])[H])[H])([H])[H])N1C(C(C(SC([C@]1(C(F)(F)F)[H])([H])[H])([H])[H])([H])[H])([H])[H]

>  <h>  (1) 
<NA>

>  <Training>  (1) 
True

>  <Success>  (1) 
True

>  <enamine_searched>  (1) 
False

>  <enamine_id>  (1) 
nan

$$$$
