
     RDKit          3D

 64 70  0  0  0  0  0  0  0  0999 V2000
   10.4326    4.1038   23.0087 O   0  0  0  0  0  0  0  0  0  0  0  0
    9.9420    2.9891   22.8988 C   0  0  0  0  0  0  0  0  0  0  0  0
   10.7487    1.7751   22.5348 C   0  0  0  0  0  0  0  0  0  0  0  0
   12.1273    1.9225   22.3892 C   0  0  0  0  0  0  0  0  0  0  0  0
   12.9036    0.8780   21.9310 C   0  0  0  0  0  0  0  0  0  0  0  0
   12.2735   -0.3169   21.5863 C   0  0  0  0  0  0  0  0  0  0  0  0
   13.2171   -1.6022   20.8800 Cl  0  0  0  0  0  0  0  0  0  0  0  0
   10.9050   -0.4778   21.7124 C   0  0  0  0  0  0  0  0  0  0  0  0
   10.1252    0.5461   22.2613 C   0  0  0  0  0  0  0  0  0  0  0  0
    8.6230    0.3666   22.4302 C   0  0  1  0  0  0  0  0  0  0  0  0
    8.1526    1.4309   23.4567 C   0  0  0  0  0  0  0  0  0  0  0  0
    8.6073    2.7491   23.0658 N   0  0  0  0  0  0  0  0  0  0  0  0
    7.6709    3.8567   23.1229 C   0  0  0  0  0  0  0  0  0  0  0  0
    7.3487    4.3188   24.5332 C   0  0  0  0  0  0  0  0  0  0  0  0
    8.1538    5.2248   25.1870 C   0  0  0  0  0  0  0  0  0  0  0  0
    7.8305    5.5331   26.5081 C   0  0  0  0  0  0  0  0  0  0  0  0
    6.7950    5.0158   27.1599 N   0  0  0  0  0  0  0  0  0  0  0  0
    5.9938    4.1692   26.5292 N   0  0  0  0  0  0  0  0  0  0  0  0
    6.2534    3.8389   25.2671 C   0  0  0  0  0  0  0  0  0  0  0  0
    5.5367    3.1424   24.8326 H   0  0  0  0  0  0  0  0  0  0  0  0
    8.4487    6.2087   27.0960 H   0  0  0  0  0  0  0  0  0  0  0  0
    9.0398    5.6369   24.7011 H   0  0  0  0  0  0  0  0  0  0  0  0
    6.7505    3.5358   22.6099 H   0  0  0  0  0  0  0  0  0  0  0  0
    8.1195    4.6776   22.5561 H   0  0  0  0  0  0  0  0  0  0  0  0
    7.0580    1.4547   23.5039 H   0  0  0  0  0  0  0  0  0  0  0  0
    8.5412    1.1815   24.4543 H   0  0  0  0  0  0  0  0  0  0  0  0
    7.8751    0.6296   21.1046 C   0  0  0  0  0  0  0  0  0  0  0  0
    8.0685    1.5220   20.3187 O   0  0  0  0  0  0  0  0  0  0  0  0
    6.8670   -0.3016   20.9734 N   0  0  0  0  0  0  0  0  0  0  0  0
    5.8912   -0.1551   19.9534 C   0  0  0  0  0  0  0  0  0  0  0  0
    6.0616   -0.8019   18.7591 C   0  0  0  0  0  0  0  0  0  0  0  0
    5.2315   -0.6775   17.6937 N   0  0  0  0  0  0  0  0  0  0  0  0
    4.1770    0.0870   17.8392 C   0  0  0  0  0  0  0  0  0  0  0  0
    3.8333    0.7571   19.0474 C   0  0  0  0  0  0  0  0  0  0  0  0
    2.6548    1.5403   19.1723 C   0  0  0  0  0  0  0  0  0  0  0  0
    2.3602    2.1805   20.3422 C   0  0  0  0  0  0  0  0  0  0  0  0
    3.2433    2.0836   21.4413 C   0  0  0  0  0  0  0  0  0  0  0  0
    4.3928    1.3382   21.3455 C   0  0  0  0  0  0  0  0  0  0  0  0
    4.7193    0.6478   20.1437 C   0  0  0  0  0  0  0  0  0  0  0  0
    5.0692    1.2811   22.1932 H   0  0  0  0  0  0  0  0  0  0  0  0
    3.0208    2.6201   22.3570 H   0  0  0  0  0  0  0  0  0  0  0  0
    1.4574    2.7789   20.4285 H   0  0  0  0  0  0  0  0  0  0  0  0
    2.0031    1.6393   18.3131 H   0  0  0  0  0  0  0  0  0  0  0  0
    3.5185    0.1834   16.9763 H   0  0  0  0  0  0  0  0  0  0  0  0
    6.9144   -1.4620   18.6168 H   0  0  0  0  0  0  0  0  0  0  0  0
    6.7694   -1.2198   22.0888 C   0  0  0  0  0  0  0  0  0  0  0  0
    8.1396   -1.0721   22.7823 C   0  0  2  0  0  0  0  0  0  0  0  0
    8.0889   -1.4630   24.2712 C   0  0  0  0  0  0  0  0  0  0  0  0
    9.3518   -1.2612   24.9602 N   0  0  0  0  0  0  0  0  0  0  0  0
   10.4491   -1.9803   24.6562 C   0  0  0  0  0  0  0  0  0  0  0  0
   10.4369   -3.0167   23.8581 N   0  0  0  0  0  0  0  0  0  0  0  0
   11.6747   -3.5506   23.7089 N   0  0  0  0  0  0  0  0  0  0  0  0
   12.5966   -2.9361   24.3574 C   0  0  0  0  0  0  0  0  0  0  0  0
   12.0283   -1.5806   25.2785 S   0  0  0  0  0  0  0  0  0  0  0  0
   13.6247   -3.2531   24.3173 H   0  0  0  0  0  0  0  0  0  0  0  0
    9.4375   -0.5435   25.6624 H   0  0  0  0  0  0  0  0  0  0  0  0
    7.7653   -2.5120   24.3604 H   0  0  0  0  0  0  0  0  0  0  0  0
    7.3619   -0.8354   24.7918 H   0  0  0  0  0  0  0  0  0  0  0  0
    8.8436   -1.7614   22.3105 H   0  0  0  0  0  0  0  0  0  0  0  0
    6.5758   -2.2352   21.7245 H   0  0  0  0  0  0  0  0  0  0  0  0
    5.9400   -0.9480   22.7658 H   0  0  0  0  0  0  0  0  0  0  0  0
   10.4588   -1.3882   21.3251 H   0  0  0  0  0  0  0  0  0  0  0  0
   13.9703    0.9980   21.7785 H   0  0  0  0  0  0  0  0  0  0  0  0
   12.5579    2.8912   22.6169 H   0  0  0  0  0  0  0  0  0  0  0  0
  1  2  2  0
  2  3  1  0
  3  4  2  0
  4  5  1  0
  5  6  2  0
  6  7  1  0
  6  8  1  0
  8  9  2  0
  9 10  1  0
 10 11  1  1
 11 12  1  0
 12 13  1  0
 13 14  1  0
 14 15  2  0
 15 16  1  0
 16 17  2  0
 17 18  1  0
 18 19  2  0
 19 20  1  0
 16 21  1  0
 15 22  1  0
 13 23  1  0
 13 24  1  0
 11 25  1  0
 11 26  1  0
 10 27  1  0
 27 28  2  0
 27 29  1  0
 29 30  1  0
 30 31  2  0
 31 32  1  0
 32 33  2  0
 33 34  1  0
 34 35  2  0
 35 36  1  0
 36 37  2  0
 37 38  1  0
 38 39  2  0
 38 40  1  0
 37 41  1  0
 36 42  1  0
 35 43  1  0
 33 44  1  0
 31 45  1  0
 29 46  1  0
 46 47  1  0
 47 48  1  0
 48 49  1  0
 49 50  1  0
 50 51  2  0
 51 52  1  0
 52 53  2  0
 53 54  1  0
 53 55  1  0
 49 56  1  0
 48 57  1  0
 48 58  1  0
 47 59  1  6
 46 60  1  0
 46 61  1  0
  8 62  1  0
  5 63  1  0
  4 64  1  0
 12  2  1  0
 19 14  1  0
 39 30  1  0
 54 50  1  0
  9  3  1  0
 47 10  1  0
 39 34  1  0
M  END
>  <cnnaffinities>  (1) 
[6.52991, 6.57055]

>  <score>  (1) 
6.52991

>  <index>  (1) 
61

>  <Smiles>  (1) 
O=C1c2c(c(c(Cl)c(c2[C@@]2(C(N1C(c1c(c(nnc1[H])[H])[H])([H])[H])([H])[H])C(=O)N(c1c(nc(c3c(c(c(c(c13)[H])[H])[H])[H])[H])[H])C([C@@]2(C(N(c1nnc(s1)[H])[H])([H])[H])[H])([H])[H])[H])[H])[H]

>  <h>  (1) 
<NA>

>  <Training>  (1) 
True

>  <Success>  (1) 
True

>  <enamine_searched>  (1) 
False

>  <enamine_id>  (1) 
nan

$$$$
