
     RDKit          3D

 63 69  0  0  0  0  0  0  0  0999 V2000
    9.0794    4.1775   23.8598 O   0  0  0  0  0  0  0  0  0  0  0  0
    8.9513    2.9736   23.6989 C   0  0  0  0  0  0  0  0  0  0  0  0
   10.0532    2.1216   23.1610 C   0  0  0  0  0  0  0  0  0  0  0  0
   11.3376    2.6526   23.1720 C   0  0  0  0  0  0  0  0  0  0  0  0
   12.4046    1.9136   22.6936 C   0  0  0  0  0  0  0  0  0  0  0  0
   12.1384    0.6661   22.1313 C   0  0  0  0  0  0  0  0  0  0  0  0
   13.3985   -0.3329   21.4642 Cl  0  0  0  0  0  0  0  0  0  0  0  0
   10.8555    0.1671   22.0360 C   0  0  0  0  0  0  0  0  0  0  0  0
    9.7924    0.8548   22.6290 C   0  0  0  0  0  0  0  0  0  0  0  0
    8.3848    0.2952   22.6734 C   0  0  1  0  0  0  0  0  0  0  0  0
    7.7119    0.8531   23.9665 C   0  0  0  0  0  0  0  0  0  0  0  0
    7.7939    2.3070   24.0033 N   0  0  0  0  0  0  0  0  0  0  0  0
    6.6874    3.0887   24.5142 C   0  0  0  0  0  0  0  0  0  0  0  0
    6.5664    3.0828   26.0081 C   0  0  0  0  0  0  0  0  0  0  0  0
    6.9807    3.9515   26.8696 N   0  0  0  0  0  0  0  0  0  0  0  0
    6.6086    3.4772   28.1245 N   0  0  0  0  0  0  0  0  0  0  0  0
    5.9872    2.3722   27.9091 C   0  0  0  0  0  0  0  0  0  0  0  0
    5.9154    2.0466   26.5988 O   0  0  0  0  0  0  0  0  0  0  0  0
    5.5073    1.7248   28.6277 H   0  0  0  0  0  0  0  0  0  0  0  0
    6.8391    4.1209   24.1944 H   0  0  0  0  0  0  0  0  0  0  0  0
    5.7521    2.7188   24.0829 H   0  0  0  0  0  0  0  0  0  0  0  0
    8.2226    0.4151   24.8429 H   0  0  0  0  0  0  0  0  0  0  0  0
    6.6495    0.5792   24.0079 H   0  0  0  0  0  0  0  0  0  0  0  0
    7.5926    0.7467   21.4266 C   0  0  0  0  0  0  0  0  0  0  0  0
    7.5999    1.8321   20.8870 O   0  0  0  0  0  0  0  0  0  0  0  0
    6.8431   -0.3196   20.9828 N   0  0  0  0  0  0  0  0  0  0  0  0
    5.8882   -0.1665   19.9615 C   0  0  0  0  0  0  0  0  0  0  0  0
    6.0825   -0.7893   18.7569 C   0  0  0  0  0  0  0  0  0  0  0  0
    5.2737   -0.6447   17.6823 N   0  0  0  0  0  0  0  0  0  0  0  0
    4.2152    0.1163   17.8346 C   0  0  0  0  0  0  0  0  0  0  0  0
    3.8694    0.7745   19.0480 C   0  0  0  0  0  0  0  0  0  0  0  0
    2.6964    1.5631   19.1583 C   0  0  0  0  0  0  0  0  0  0  0  0
    2.3531    2.1390   20.3485 C   0  0  0  0  0  0  0  0  0  0  0  0
    3.1877    1.9868   21.4777 C   0  0  0  0  0  0  0  0  0  0  0  0
    4.3452    1.2575   21.3891 C   0  0  0  0  0  0  0  0  0  0  0  0
    4.7184    0.6291   20.1638 C   0  0  0  0  0  0  0  0  0  0  0  0
    4.9851    1.1662   22.2630 H   0  0  0  0  0  0  0  0  0  0  0  0
    2.9094    2.4589   22.4149 H   0  0  0  0  0  0  0  0  0  0  0  0
    1.4352    2.7117   20.4361 H   0  0  0  0  0  0  0  0  0  0  0  0
    2.0880    1.7030   18.2713 H   0  0  0  0  0  0  0  0  0  0  0  0
    3.5523    0.2195   16.9762 H   0  0  0  0  0  0  0  0  0  0  0  0
    6.9600   -1.4206   18.6208 H   0  0  0  0  0  0  0  0  0  0  0  0
    7.0042   -1.5303   21.7482 C   0  0  0  0  0  0  0  0  0  0  0  0
    8.2816   -1.2511   22.5500 C   0  0  2  0  0  0  0  0  0  0  0  0
    8.3273   -2.0698   23.8472 C   0  0  0  0  0  0  0  0  0  0  0  0
    8.3784   -3.4985   23.5901 N   0  0  0  0  0  0  0  0  0  0  0  0
    7.3097   -4.3188   23.5962 C   0  0  0  0  0  0  0  0  0  0  0  0
    7.5469   -5.6010   23.2306 N   0  0  0  0  0  0  0  0  0  0  0  0
    6.4736   -6.3680   23.2272 C   0  0  0  0  0  0  0  0  0  0  0  0
    5.2270   -6.0103   23.5534 N   0  0  0  0  0  0  0  0  0  0  0  0
    5.1220   -4.7343   23.9146 C   0  0  0  0  0  0  0  0  0  0  0  0
    6.1002   -3.8365   23.9549 N   0  0  0  0  0  0  0  0  0  0  0  0
    4.1282   -4.3874   24.2036 H   0  0  0  0  0  0  0  0  0  0  0  0
    6.6111   -7.4081   22.9251 H   0  0  0  0  0  0  0  0  0  0  0  0
    9.2514   -3.9381   23.3334 H   0  0  0  0  0  0  0  0  0  0  0  0
    7.4221   -1.8986   24.4388 H   0  0  0  0  0  0  0  0  0  0  0  0
    9.1944   -1.7888   24.4564 H   0  0  0  0  0  0  0  0  0  0  0  0
    9.1198   -1.5727   21.9221 H   0  0  0  0  0  0  0  0  0  0  0  0
    6.1374   -1.7181   22.3994 H   0  0  0  0  0  0  0  0  0  0  0  0
    7.1111   -2.3990   21.0916 H   0  0  0  0  0  0  0  0  0  0  0  0
   10.7249   -0.7425   21.4592 H   0  0  0  0  0  0  0  0  0  0  0  0
   13.4131    2.3070   22.7237 H   0  0  0  0  0  0  0  0  0  0  0  0
   11.4546    3.6538   23.5686 H   0  0  0  0  0  0  0  0  0  0  0  0
  1  2  2  0
  2  3  1  0
  3  4  2  0
  4  5  1  0
  5  6  2  0
  6  7  1  0
  6  8  1  0
  8  9  2  0
  9 10  1  0
 10 11  1  1
 11 12  1  0
 12 13  1  0
 13 14  1  0
 14 15  2  0
 15 16  1  0
 16 17  2  0
 17 18  1  0
 17 19  1  0
 13 20  1  0
 13 21  1  0
 11 22  1  0
 11 23  1  0
 10 24  1  0
 24 25  2  0
 24 26  1  0
 26 27  1  0
 27 28  2  0
 28 29  1  0
 29 30  2  0
 30 31  1  0
 31 32  2  0
 32 33  1  0
 33 34  2  0
 34 35  1  0
 35 36  2  0
 35 37  1  0
 34 38  1  0
 33 39  1  0
 32 40  1  0
 30 41  1  0
 28 42  1  0
 26 43  1  0
 43 44  1  0
 44 45  1  0
 45 46  1  0
 46 47  1  0
 47 48  2  0
 48 49  1  0
 49 50  2  0
 50 51  1  0
 51 52  2  0
 51 53  1  0
 49 54  1  0
 46 55  1  0
 45 56  1  0
 45 57  1  0
 44 58  1  6
 43 59  1  0
 43 60  1  0
  8 61  1  0
  5 62  1  0
  4 63  1  0
 12  2  1  0
 18 14  1  0
 36 27  1  0
 52 47  1  0
  9  3  1  0
 44 10  1  0
 36 31  1  0
M  END
>  <cnnaffinities>  (1) 
[6.69447, 6.72855, 6.73273, 6.74796, 6.95049, 6.74132, 6.73952, 6.66525]

>  <score>  (1) 
6.69447

>  <index>  (1) 
0

>  <Smiles>  (1) 
O=C1c2c(c(c(Cl)c(c2[C@@]2(C(N1C(c1nnc(o1)[H])([H])[H])([H])[H])C(=O)N(c1c(nc(c3c(c(c(c(c13)[H])[H])[H])[H])[H])[H])C([C@@]2(C(N(c1nc(nc(n1)[H])[H])[H])([H])[H])[H])([H])[H])[H])[H])[H]

>  <h>  (1) 
<NA>

>  <Training>  (1) 
True

>  <Success>  (1) 
True

>  <enamine_searched>  (1) 
False

>  <enamine_id>  (1) 
nan

$$$$
