
     RDKit          3D

 56 60  0  0  0  0  0  0  0  0999 V2000
   13.6145    0.7520   22.6483 C   0  0  0  0  0  0  0  0  0  0  0  0
   13.2482   -0.6388   22.8036 N   0  0  0  0  0  0  0  0  0  0  0  0
   12.8633   -1.3381   21.7124 C   0  0  0  0  0  0  0  0  0  0  0  0
   13.0867   -1.0003   20.5660 O   0  0  0  0  0  0  0  0  0  0  0  0
   12.0624   -2.5705   21.9701 C   0  0  0  0  0  0  0  0  0  0  0  0
   10.7876   -2.3342   22.5987 N   0  0  0  0  0  0  0  0  0  0  0  0
    9.6243   -2.1460   21.7396 C   0  0  0  0  0  0  0  0  0  0  0  0
    8.4611   -1.3874   22.4404 C   0  0  2  0  0  0  0  0  0  0  0  0
    7.2186   -1.5700   21.5562 C   0  0  0  0  0  0  0  0  0  0  0  0
    6.6743   -2.6258   21.3036 O   0  0  0  0  0  0  0  0  0  0  0  0
    6.8087   -0.3424   21.0664 N   0  0  0  0  0  0  0  0  0  0  0  0
    5.8683   -0.2329   20.0134 C   0  0  0  0  0  0  0  0  0  0  0  0
    6.1020   -0.8187   18.7970 C   0  0  0  0  0  0  0  0  0  0  0  0
    5.3229   -0.6301   17.7030 N   0  0  0  0  0  0  0  0  0  0  0  0
    4.2684    0.1390   17.8298 C   0  0  0  0  0  0  0  0  0  0  0  0
    3.8989    0.7942   19.0392 C   0  0  0  0  0  0  0  0  0  0  0  0
    2.7296    1.5936   19.1508 C   0  0  0  0  0  0  0  0  0  0  0  0
    2.4013    2.1719   20.3463 C   0  0  0  0  0  0  0  0  0  0  0  0
    3.2367    2.0066   21.4765 C   0  0  0  0  0  0  0  0  0  0  0  0
    4.3824    1.2542   21.3875 C   0  0  0  0  0  0  0  0  0  0  0  0
    4.7286    0.6161   20.1690 C   0  0  0  0  0  0  0  0  0  0  0  0
    5.0357    1.1286   22.2461 H   0  0  0  0  0  0  0  0  0  0  0  0
    2.9686    2.4750   22.4200 H   0  0  0  0  0  0  0  0  0  0  0  0
    1.4952    2.7667   20.4415 H   0  0  0  0  0  0  0  0  0  0  0  0
    2.1135    1.7484   18.2679 H   0  0  0  0  0  0  0  0  0  0  0  0
    3.6400    0.2711   16.9469 H   0  0  0  0  0  0  0  0  0  0  0  0
    6.9589   -1.4736   18.6552 H   0  0  0  0  0  0  0  0  0  0  0  0
    7.8094    0.6952   21.2479 C   0  0  0  0  0  0  0  0  0  0  0  0
    8.6028    0.1805   22.4582 C   0  0  2  0  0  0  0  0  0  0  0  0
   10.0384    0.6744   22.5127 C   0  0  0  0  0  0  0  0  0  0  0  0
   10.1557    2.4500   22.7378 Cl  0  0  0  0  0  0  0  0  0  0  0  0
   10.5551    0.2229   23.3589 H   0  0  0  0  0  0  0  0  0  0  0  0
   10.5818    0.4410   21.5950 H   0  0  0  0  0  0  0  0  0  0  0  0
    8.0888    0.5290   23.3604 H   0  0  0  0  0  0  0  0  0  0  0  0
    7.3403    1.6690   21.4259 H   0  0  0  0  0  0  0  0  0  0  0  0
    8.4352    0.8111   20.3491 H   0  0  0  0  0  0  0  0  0  0  0  0
    8.2764   -1.9826   23.8379 C   0  0  0  0  0  0  0  0  0  0  0  0
    7.0566   -1.8894   24.5299 C   0  0  0  0  0  0  0  0  0  0  0  0
    6.9397   -2.3826   25.8239 C   0  0  0  0  0  0  0  0  0  0  0  0
    5.4340   -2.2308   26.6898 Cl  0  0  0  0  0  0  0  0  0  0  0  0
    8.0096   -3.0047   26.4615 C   0  0  0  0  0  0  0  0  0  0  0  0
    9.2105   -3.1010   25.7928 C   0  0  0  0  0  0  0  0  0  0  0  0
    9.3512   -2.5789   24.5122 C   0  0  0  0  0  0  0  0  0  0  0  0
   10.7074   -2.6627   23.9133 C   0  0  0  0  0  0  0  0  0  0  0  0
   11.7086   -2.9712   24.5557 O   0  0  0  0  0  0  0  0  0  0  0  0
   10.0758   -3.5694   26.2509 H   0  0  0  0  0  0  0  0  0  0  0  0
    7.9161   -3.3824   27.4728 H   0  0  0  0  0  0  0  0  0  0  0  0
    6.1772   -1.4464   24.0765 H   0  0  0  0  0  0  0  0  0  0  0  0
    9.9510   -1.6014   20.8457 H   0  0  0  0  0  0  0  0  0  0  0  0
    9.2575   -3.1227   21.3942 H   0  0  0  0  0  0  0  0  0  0  0  0
   11.8762   -2.9600   20.9754 H   0  0  0  0  0  0  0  0  0  0  0  0
   12.6456   -3.2342   22.6153 H   0  0  0  0  0  0  0  0  0  0  0  0
   13.0287   -1.0033   23.7241 H   0  0  0  0  0  0  0  0  0  0  0  0
   14.1637    1.0642   23.5377 H   0  0  0  0  0  0  0  0  0  0  0  0
   12.7275    1.3911   22.5089 H   0  0  0  0  0  0  0  0  0  0  0  0
   14.2436    0.8468   21.7587 H   0  0  0  0  0  0  0  0  0  0  0  0
  1  2  1  0
  2  3  1  0
  3  4  2  0
  3  5  1  0
  5  6  1  0
  6  7  1  0
  8  7  1  6
  8  9  1  0
  9 10  2  0
  9 11  1  0
 11 12  1  0
 12 13  2  0
 13 14  1  0
 14 15  2  0
 15 16  1  0
 16 17  2  0
 17 18  1  0
 18 19  2  0
 19 20  1  0
 20 21  2  0
 20 22  1  0
 19 23  1  0
 18 24  1  0
 17 25  1  0
 15 26  1  0
 13 27  1  0
 11 28  1  0
 28 29  1  0
 29 30  1  0
 30 31  1  0
 30 32  1  0
 30 33  1  0
 29 34  1  1
 28 35  1  0
 28 36  1  0
  8 37  1  0
 37 38  2  0
 38 39  1  0
 39 40  1  0
 39 41  2  0
 41 42  1  0
 42 43  2  0
 43 44  1  0
 44 45  2  0
 42 46  1  0
 41 47  1  0
 38 48  1  0
  7 49  1  0
  7 50  1  0
  5 51  1  0
  5 52  1  0
  2 53  1  0
  1 54  1  0
  1 55  1  0
  1 56  1  0
 44  6  1  0
 29  8  1  0
 43 37  1  0
 21 12  1  0
 21 16  1  0
M  END
>  <cnnaffinities>  (1) 
[6.49988, 6.42414, 6.20779, 6.10267]

>  <score>  (1) 
6.49988

>  <index>  (1) 
44

>  <Smiles>  (1) 
C(N(C(=O)C(N1C([C@@]2(C(=O)N(c3c(nc(c4c(c(c(c(c34)[H])[H])[H])[H])[H])[H])C([C@@]2(C(Cl)([H])[H])[H])([H])[H])c2c(c(Cl)c(c(c2C1=O)[H])[H])[H])([H])[H])([H])[H])[H])([H])([H])[H]

>  <h>  (1) 
<NA>

>  <Training>  (1) 
True

>  <Success>  (1) 
True

>  <enamine_searched>  (1) 
False

>  <enamine_id>  (1) 
nan

$$$$
