
     RDKit          3D

 65 70  0  0  0  0  0  0  0  0999 V2000
    7.1970    6.3583   21.6522 C   0  0  0  0  0  0  0  0  0  0  0  0
    7.4596    5.5307   22.8109 N   0  0  0  0  0  0  0  0  0  0  0  0
    6.7919    4.3511   22.9423 C   0  0  0  0  0  0  0  0  0  0  0  0
    5.9284    3.9704   22.1699 O   0  0  0  0  0  0  0  0  0  0  0  0
    7.2211    3.5198   24.1545 C   0  0  0  0  0  0  0  0  0  0  0  0
    8.1794    2.4970   23.7537 N   0  0  0  0  0  0  0  0  0  0  0  0
    7.8346    1.0841   23.8090 C   0  0  0  0  0  0  0  0  0  0  0  0
    8.4320    0.2843   22.6123 C   0  0  2  0  0  0  0  0  0  0  0  0
    7.7274    0.6595   21.2896 C   0  0  0  0  0  0  0  0  0  0  0  0
    7.8988    1.6369   20.5951 O   0  0  0  0  0  0  0  0  0  0  0  0
    6.8187   -0.3315   20.9965 N   0  0  0  0  0  0  0  0  0  0  0  0
    5.8817   -0.1696   19.9571 C   0  0  0  0  0  0  0  0  0  0  0  0
    6.0826   -0.7871   18.7517 C   0  0  0  0  0  0  0  0  0  0  0  0
    5.2737   -0.6458   17.6752 N   0  0  0  0  0  0  0  0  0  0  0  0
    4.2114    0.1114   17.8203 C   0  0  0  0  0  0  0  0  0  0  0  0
    3.8626    0.7730   19.0329 C   0  0  0  0  0  0  0  0  0  0  0  0
    2.6897    1.5644   19.1529 C   0  0  0  0  0  0  0  0  0  0  0  0
    2.3631    2.1491   20.3436 C   0  0  0  0  0  0  0  0  0  0  0  0
    3.2170    2.0143   21.4602 C   0  0  0  0  0  0  0  0  0  0  0  0
    4.3777    1.2884   21.3608 C   0  0  0  0  0  0  0  0  0  0  0  0
    4.7187    0.6354   20.1450 C   0  0  0  0  0  0  0  0  0  0  0  0
    5.0549    1.2355   22.2095 H   0  0  0  0  0  0  0  0  0  0  0  0
    2.9678    2.5064   22.3939 H   0  0  0  0  0  0  0  0  0  0  0  0
    1.4453    2.7220   20.4391 H   0  0  0  0  0  0  0  0  0  0  0  0
    2.0720    1.7040   18.2727 H   0  0  0  0  0  0  0  0  0  0  0  0
    3.5560    0.2166   16.9559 H   0  0  0  0  0  0  0  0  0  0  0  0
    6.9589   -1.4183   18.6170 H   0  0  0  0  0  0  0  0  0  0  0  0
    6.8250   -1.4569   21.8951 C   0  0  0  0  0  0  0  0  0  0  0  0
    8.1147   -1.2368   22.6892 C   0  0  2  0  0  0  0  0  0  0  0  0
    8.0625   -1.8891   24.0737 C   0  0  0  0  0  0  0  0  0  0  0  0
    7.9577   -3.3350   23.9733 N   0  0  0  0  0  0  0  0  0  0  0  0
    6.8078   -4.0306   24.0434 C   0  0  0  0  0  0  0  0  0  0  0  0
    5.6660   -3.3727   24.3350 N   0  0  0  0  0  0  0  0  0  0  0  0
    4.5897   -4.1487   24.3858 C   0  0  0  0  0  0  0  0  0  0  0  0
    4.5467   -5.4599   24.1636 N   0  0  0  0  0  0  0  0  0  0  0  0
    5.7381   -5.9966   23.8830 C   0  0  0  0  0  0  0  0  0  0  0  0
    6.8958   -5.3634   23.8117 N   0  0  0  0  0  0  0  0  0  0  0  0
    5.7342   -7.0741   23.6985 H   0  0  0  0  0  0  0  0  0  0  0  0
    3.6452   -3.6642   24.6365 H   0  0  0  0  0  0  0  0  0  0  0  0
    8.7822   -3.8792   23.7687 H   0  0  0  0  0  0  0  0  0  0  0  0
    8.9705   -1.6432   24.6349 H   0  0  0  0  0  0  0  0  0  0  0  0
    7.1916   -1.5447   24.6434 H   0  0  0  0  0  0  0  0  0  0  0  0
    8.9031   -1.7410   22.1222 H   0  0  0  0  0  0  0  0  0  0  0  0
    6.8456   -2.4013   21.3429 H   0  0  0  0  0  0  0  0  0  0  0  0
    5.9335   -1.4801   22.5369 H   0  0  0  0  0  0  0  0  0  0  0  0
    9.9034    0.6252   22.5068 C   0  0  0  0  0  0  0  0  0  0  0  0
   10.8055   -0.2423   21.8759 C   0  0  0  0  0  0  0  0  0  0  0  0
   12.1554    0.0570   21.8659 C   0  0  0  0  0  0  0  0  0  0  0  0
   13.2800   -1.1166   21.2322 Cl  0  0  0  0  0  0  0  0  0  0  0  0
   12.6420    1.2669   22.3591 C   0  0  0  0  0  0  0  0  0  0  0  0
   11.7374    2.1822   22.8649 C   0  0  0  0  0  0  0  0  0  0  0  0
   10.3799    1.8668   22.9467 C   0  0  0  0  0  0  0  0  0  0  0  0
    9.4423    2.9107   23.4631 C   0  0  0  0  0  0  0  0  0  0  0  0
    9.7882    4.0843   23.5917 O   0  0  0  0  0  0  0  0  0  0  0  0
   12.0595    3.1609   23.2038 H   0  0  0  0  0  0  0  0  0  0  0  0
   13.7108    1.4615   22.3217 H   0  0  0  0  0  0  0  0  0  0  0  0
   10.4886   -1.1476   21.3637 H   0  0  0  0  0  0  0  0  0  0  0  0
    6.7411    1.0027   23.8172 H   0  0  0  0  0  0  0  0  0  0  0  0
    8.2233    0.6628   24.7463 H   0  0  0  0  0  0  0  0  0  0  0  0
    6.3428    3.0297   24.5800 H   0  0  0  0  0  0  0  0  0  0  0  0
    7.6452    4.1688   24.9276 H   0  0  0  0  0  0  0  0  0  0  0  0
    8.4019    5.5129   23.1893 H   0  0  0  0  0  0  0  0  0  0  0  0
    6.1793    6.7549   21.6990 H   0  0  0  0  0  0  0  0  0  0  0  0
    7.2942    5.7906   20.7219 H   0  0  0  0  0  0  0  0  0  0  0  0
    7.9072    7.1867   21.6590 H   0  0  0  0  0  0  0  0  0  0  0  0
  1  2  1  0
  2  3  1  0
  3  4  2  0
  3  5  1  0
  5  6  1  0
  6  7  1  0
  8  7  1  1
  8  9  1  0
  9 10  2  0
  9 11  1  0
 11 12  1  0
 12 13  2  0
 13 14  1  0
 14 15  2  0
 15 16  1  0
 16 17  2  0
 17 18  1  0
 18 19  2  0
 19 20  1  0
 20 21  2  0
 20 22  1  0
 19 23  1  0
 18 24  1  0
 17 25  1  0
 15 26  1  0
 13 27  1  0
 11 28  1  0
 28 29  1  0
 29 30  1  0
 30 31  1  0
 31 32  1  0
 32 33  2  0
 33 34  1  0
 34 35  2  0
 35 36  1  0
 36 37  2  0
 36 38  1  0
 34 39  1  0
 31 40  1  0
 30 41  1  0
 30 42  1  0
 29 43  1  6
 28 44  1  0
 28 45  1  0
  8 46  1  0
 46 47  2  0
 47 48  1  0
 48 49  1  0
 48 50  2  0
 50 51  1  0
 51 52  2  0
 52 53  1  0
 53 54  2  0
 51 55  1  0
 50 56  1  0
 47 57  1  0
  7 58  1  0
  7 59  1  0
  5 60  1  0
  5 61  1  0
  2 62  1  0
  1 63  1  0
  1 64  1  0
  1 65  1  0
 53  6  1  0
 29  8  1  0
 37 32  1  0
 52 46  1  0
 21 12  1  0
 21 16  1  0
M  END
>  <cnnaffinities>  (1) 
[6.77476, 6.56728, 6.56947]

>  <score>  (1) 
6.77476

>  <index>  (1) 
86

>  <Smiles>  (1) 
C(N(C(=O)C(N1C([C@@]2(C(=O)N(c3c(nc(c4c(c(c(c(c34)[H])[H])[H])[H])[H])[H])C([C@@]2(C(N(c2nc(nc(n2)[H])[H])[H])([H])[H])[H])([H])[H])c2c(c(Cl)c(c(c2C1=O)[H])[H])[H])([H])[H])([H])[H])[H])([H])([H])[H]

>  <h>  (1) 
<NA>

>  <Training>  (1) 
True

>  <Success>  (1) 
True

>  <enamine_searched>  (1) 
False

>  <enamine_id>  (1) 
nan

$$$$
