
     RDKit          3D

 62 67  0  0  0  0  0  0  0  0999 V2000
    6.8513    5.0687   27.3558 C   0  0  0  0  0  0  0  0  0  0  0  0
    7.1047    3.5905   27.0979 C   0  0  0  0  0  0  0  0  0  0  0  0
    5.9816    2.8583   26.5560 N   0  0  0  0  0  0  0  0  0  0  0  0
    5.0683    2.3664   27.4064 N   0  0  0  0  0  0  0  0  0  0  0  0
    4.1600    1.7935   26.6324 C   0  0  0  0  0  0  0  0  0  0  0  0
    4.4777    1.9239   25.2655 C   0  0  0  0  0  0  0  0  0  0  0  0
    5.6833    2.6065   25.2494 C   0  0  0  0  0  0  0  0  0  0  0  0
    6.6362    3.0538   24.1810 C   0  0  0  0  0  0  0  0  0  0  0  0
    7.8826    2.2765   24.1154 N   0  0  0  0  0  0  0  0  0  0  0  0
    7.7813    0.8299   23.9601 C   0  0  0  0  0  0  0  0  0  0  0  0
    8.4407    0.3080   22.6483 C   0  0  2  0  0  0  0  0  0  0  0  0
    7.6187    0.7776   21.4254 C   0  0  0  0  0  0  0  0  0  0  0  0
    7.5929    1.8827   20.9235 O   0  0  0  0  0  0  0  0  0  0  0  0
    6.8771   -0.2888   20.9743 N   0  0  0  0  0  0  0  0  0  0  0  0
    5.9136   -0.1406   19.9578 C   0  0  0  0  0  0  0  0  0  0  0  0
    6.0999   -0.7722   18.7561 C   0  0  0  0  0  0  0  0  0  0  0  0
    5.2856   -0.6354   17.6853 N   0  0  0  0  0  0  0  0  0  0  0  0
    4.2292    0.1270   17.8462 C   0  0  0  0  0  0  0  0  0  0  0  0
    3.8890    0.7902   19.0584 C   0  0  0  0  0  0  0  0  0  0  0  0
    2.7159    1.5801   19.1671 C   0  0  0  0  0  0  0  0  0  0  0  0
    2.3714    2.1539   20.3606 C   0  0  0  0  0  0  0  0  0  0  0  0
    3.2019    1.9876   21.4935 C   0  0  0  0  0  0  0  0  0  0  0  0
    4.3604    1.2577   21.4066 C   0  0  0  0  0  0  0  0  0  0  0  0
    4.7392    0.6447   20.1730 C   0  0  0  0  0  0  0  0  0  0  0  0
    5.0037    1.1499   22.2770 H   0  0  0  0  0  0  0  0  0  0  0  0
    2.9176    2.4671   22.4272 H   0  0  0  0  0  0  0  0  0  0  0  0
    1.4545    2.7283   20.4468 H   0  0  0  0  0  0  0  0  0  0  0  0
    2.1136    1.7250   18.2770 H   0  0  0  0  0  0  0  0  0  0  0  0
    3.5631    0.2337   16.9924 H   0  0  0  0  0  0  0  0  0  0  0  0
    6.9785   -1.4015   18.6192 H   0  0  0  0  0  0  0  0  0  0  0  0
    7.0512   -1.5072   21.7328 C   0  0  0  0  0  0  0  0  0  0  0  0
    8.3288   -1.2376   22.5354 C   0  0  2  0  0  0  0  0  0  0  0  0
    8.3693   -2.0045   23.8504 C   0  0  0  0  0  0  0  0  0  0  0  0
    9.2696   -1.7684   24.4299 H   0  0  0  0  0  0  0  0  0  0  0  0
    7.4942   -1.7498   24.4608 H   0  0  0  0  0  0  0  0  0  0  0  0
    8.3439   -3.0825   23.6661 H   0  0  0  0  0  0  0  0  0  0  0  0
    9.1547   -1.5737   21.9073 H   0  0  0  0  0  0  0  0  0  0  0  0
    6.1963   -1.6926   22.4001 H   0  0  0  0  0  0  0  0  0  0  0  0
    7.1565   -2.3727   21.0695 H   0  0  0  0  0  0  0  0  0  0  0  0
    9.8595    0.8493   22.6074 C   0  0  0  0  0  0  0  0  0  0  0  0
   10.9157    0.1400   22.0201 C   0  0  0  0  0  0  0  0  0  0  0  0
   12.1828    0.6829   22.0326 C   0  0  0  0  0  0  0  0  0  0  0  0
   13.2014   -0.0303   21.5165 F   0  0  0  0  0  0  0  0  0  0  0  0
   12.4478    1.9326   22.5809 C   0  0  0  0  0  0  0  0  0  0  0  0
   11.3991    2.6756   23.0888 C   0  0  0  0  0  0  0  0  0  0  0  0
   10.1140    2.1338   23.1137 C   0  0  0  0  0  0  0  0  0  0  0  0
    8.9899    2.9569   23.6711 C   0  0  0  0  0  0  0  0  0  0  0  0
    9.0567    4.1790   23.7215 O   0  0  0  0  0  0  0  0  0  0  0  0
   11.5434    3.6838   23.4755 H   0  0  0  0  0  0  0  0  0  0  0  0
   13.4651    2.2977   22.5982 H   0  0  0  0  0  0  0  0  0  0  0  0
   10.7920   -0.8299   21.5528 H   0  0  0  0  0  0  0  0  0  0  0  0
    6.7229    0.5489   23.9910 H   0  0  0  0  0  0  0  0  0  0  0  0
    8.2945    0.3549   24.8050 H   0  0  0  0  0  0  0  0  0  0  0  0
    6.9156    4.0947   24.3740 H   0  0  0  0  0  0  0  0  0  0  0  0
    6.1676    3.0437   23.1862 H   0  0  0  0  0  0  0  0  0  0  0  0
    3.9078    1.5588   24.4194 H   0  0  0  0  0  0  0  0  0  0  0  0
    3.3079    1.2940   27.0798 H   0  0  0  0  0  0  0  0  0  0  0  0
    7.9439    3.4659   26.4106 H   0  0  0  0  0  0  0  0  0  0  0  0
    7.3388    3.0952   28.0416 H   0  0  0  0  0  0  0  0  0  0  0  0
    7.7651    5.5219   27.7490 H   0  0  0  0  0  0  0  0  0  0  0  0
    6.0588    5.2157   28.0917 H   0  0  0  0  0  0  0  0  0  0  0  0
    6.5884    5.6030   26.4383 H   0  0  0  0  0  0  0  0  0  0  0  0
  1  2  1  0
  2  3  1  0
  3  4  1  0
  4  5  2  0
  5  6  1  0
  6  7  2  0
  7  8  1  0
  8  9  1  0
  9 10  1  0
 11 10  1  1
 11 12  1  0
 12 13  2  0
 12 14  1  0
 14 15  1  0
 15 16  2  0
 16 17  1  0
 17 18  2  0
 18 19  1  0
 19 20  2  0
 20 21  1  0
 21 22  2  0
 22 23  1  0
 23 24  2  0
 23 25  1  0
 22 26  1  0
 21 27  1  0
 20 28  1  0
 18 29  1  0
 16 30  1  0
 14 31  1  0
 31 32  1  0
 32 33  1  0
 33 34  1  0
 33 35  1  0
 33 36  1  0
 32 37  1  6
 31 38  1  0
 31 39  1  0
 11 40  1  0
 40 41  2  0
 41 42  1  0
 42 43  1  0
 42 44  2  0
 44 45  1  0
 45 46  2  0
 46 47  1  0
 47 48  2  0
 45 49  1  0
 44 50  1  0
 41 51  1  0
 10 52  1  0
 10 53  1  0
  8 54  1  0
  8 55  1  0
  6 56  1  0
  5 57  1  0
  2 58  1  0
  2 59  1  0
  1 60  1  0
  1 61  1  0
  1 62  1  0
  7  3  1  0
 47  9  1  0
 32 11  1  0
 46 40  1  0
 24 15  1  0
 24 19  1  0
M  END
>  <cnnaffinities>  (1) 
[6.23085, 6.17229, 6.10269, 6.12792, 6.20632, 6.13889, 6.16649, 6.18299, 6.15179, 6.20469, 6.27501, 6.29913]

>  <score>  (1) 
6.23085

>  <index>  (1) 
43

>  <Smiles>  (1) 
C(C(n1nc(c(c1C(N1C([C@@]2(C(=O)N(c3c(nc(c4c(c(c(c(c34)[H])[H])[H])[H])[H])[H])C([C@@]2(C([H])([H])[H])[H])([H])[H])c2c(c(F)c(c(c2C1=O)[H])[H])[H])([H])[H])([H])[H])[H])[H])([H])[H])([H])([H])[H]

>  <h>  (1) 
<NA>

>  <Training>  (1) 
True

>  <Success>  (1) 
True

>  <enamine_searched>  (1) 
False

>  <enamine_id>  (1) 
nan

$$$$
