
     RDKit          3D

 41 44  0  0  0  0  0  0  0  0999 V2000
    5.3542   -1.8938   22.1519 O   0  0  0  0  0  0  0  0  0  0  0  0
    6.5089   -1.5108   22.0450 C   0  0  0  0  0  0  0  0  0  0  0  0
    6.8944   -0.3808   21.0808 C   0  0  0  0  0  0  0  0  0  0  0  0
    5.8806   -0.1827   19.9819 C   0  0  0  0  0  0  0  0  0  0  0  0
    6.0507   -0.8050   18.7712 C   0  0  0  0  0  0  0  0  0  0  0  0
    5.2447   -0.6591   17.6883 N   0  0  0  0  0  0  0  0  0  0  0  0
    4.1844    0.0984   17.8359 C   0  0  0  0  0  0  0  0  0  0  0  0
    3.8315    0.7483   19.0490 C   0  0  0  0  0  0  0  0  0  0  0  0
    2.6521    1.5289   19.1677 C   0  0  0  0  0  0  0  0  0  0  0  0
    2.3328    2.1302   20.3528 C   0  0  0  0  0  0  0  0  0  0  0  0
    3.1984    2.0033   21.4616 C   0  0  0  0  0  0  0  0  0  0  0  0
    4.3531    1.2647   21.3671 C   0  0  0  0  0  0  0  0  0  0  0  0
    4.7001    0.6077   20.1555 C   0  0  0  0  0  0  0  0  0  0  0  0
    5.0133    1.1715   22.2232 H   0  0  0  0  0  0  0  0  0  0  0  0
    2.9561    2.5131   22.3898 H   0  0  0  0  0  0  0  0  0  0  0  0
    1.4157    2.7063   20.4405 H   0  0  0  0  0  0  0  0  0  0  0  0
    2.0253    1.6552   18.2931 H   0  0  0  0  0  0  0  0  0  0  0  0
    3.5233    0.1912   16.9755 H   0  0  0  0  0  0  0  0  0  0  0  0
    6.9014   -1.4670   18.6024 H   0  0  0  0  0  0  0  0  0  0  0  0
    7.0532    0.5479   21.6474 H   0  0  0  0  0  0  0  0  0  0  0  0
    7.8668   -0.6292   20.6372 H   0  0  0  0  0  0  0  0  0  0  0  0
    7.5078   -2.1050   22.7585 N   0  0  0  0  0  0  0  0  0  0  0  0
    8.8494   -1.5504   22.8762 C   0  0  0  0  0  0  0  0  0  0  0  0
    9.4847   -1.9710   24.1979 C   0  0  0  0  0  0  0  0  0  0  0  0
    9.4416   -3.4707   24.3493 C   0  0  0  0  0  0  0  0  0  0  0  0
   10.4504   -4.1919   24.9818 C   0  0  0  0  0  0  0  0  0  0  0  0
   11.9040   -3.3912   25.5235 Cl  0  0  0  0  0  0  0  0  0  0  0  0
   10.3660   -5.5594   25.1863 C   0  0  0  0  0  0  0  0  0  0  0  0
    9.2655   -6.2512   24.6853 C   0  0  0  0  0  0  0  0  0  0  0  0
    8.2372   -5.5519   24.0571 C   0  0  0  0  0  0  0  0  0  0  0  0
    8.3122   -4.1657   23.9073 C   0  0  0  0  0  0  0  0  0  0  0  0
    7.1386   -3.3843   23.3614 C   0  0  0  0  0  0  0  0  0  0  0  0
    6.6273   -3.9819   22.5956 H   0  0  0  0  0  0  0  0  0  0  0  0
    6.3986   -3.1880   24.1553 H   0  0  0  0  0  0  0  0  0  0  0  0
    7.3496   -6.0705   23.6904 H   0  0  0  0  0  0  0  0  0  0  0  0
    9.2130   -7.3345   24.7580 H   0  0  0  0  0  0  0  0  0  0  0  0
   11.1870   -6.0254   25.7192 H   0  0  0  0  0  0  0  0  0  0  0  0
   10.5204   -1.6211   24.2355 H   0  0  0  0  0  0  0  0  0  0  0  0
    8.9377   -1.5219   25.0420 H   0  0  0  0  0  0  0  0  0  0  0  0
    9.4815   -1.8908   22.0390 H   0  0  0  0  0  0  0  0  0  0  0  0
    8.7787   -0.4561   22.8346 H   0  0  0  0  0  0  0  0  0  0  0  0
  1  2  2  0
  2  3  1  0
  3  4  1  0
  4  5  2  0
  5  6  1  0
  6  7  2  0
  7  8  1  0
  8  9  2  0
  9 10  1  0
 10 11  2  0
 11 12  1  0
 12 13  2  0
 12 14  1  0
 11 15  1  0
 10 16  1  0
  9 17  1  0
  7 18  1  0
  5 19  1  0
  3 20  1  0
  3 21  1  0
  2 22  1  0
 22 23  1  0
 23 24  1  0
 24 25  1  0
 25 26  2  0
 26 27  1  0
 26 28  1  0
 28 29  2  0
 29 30  1  0
 30 31  2  0
 31 32  1  0
 32 33  1  0
 32 34  1  0
 30 35  1  0
 29 36  1  0
 28 37  1  0
 24 38  1  0
 24 39  1  0
 23 40  1  0
 23 41  1  0
 13  4  1  0
 32 22  1  0
 13  8  1  0
 31 25  1  0
M  END
>  <cnnaffinities>  (1) 
[5.48691, 5.32706, 5.79713, 5.62633, 5.31709]

>  <score>  (1) 
5.48691

>  <index>  (1) 
22

>  <Smiles>  (1) 
O=C(C(c1c(nc(c2c(c(c(c(c12)[H])[H])[H])[H])[H])[H])([H])[H])N1C(C(c2c(Cl)c(c(c(c2C1([H])[H])[H])[H])[H])([H])[H])([H])[H]

>  <h>  (1) 
<NA>

>  <Training>  (1) 
True

>  <Success>  (1) 
True

>  <enamine_searched>  (1) 
False

>  <enamine_id>  (1) 
nan

$$$$
