
     RDKit          3D

 38 41  0  0  0  0  0  0  0  0999 V2000
    5.3242   -1.8081   22.1240 O   0  0  0  0  0  0  0  0  0  0  0  0
    6.4914   -1.4662   22.0555 C   0  0  0  0  0  0  0  0  0  0  0  0
    6.9027   -0.3589   21.0565 C   0  0  0  0  0  0  0  0  0  0  0  0
    5.8699   -0.1738   19.9708 C   0  0  0  0  0  0  0  0  0  0  0  0
    6.0295   -0.8077   18.7673 C   0  0  0  0  0  0  0  0  0  0  0  0
    5.2145   -0.6835   17.6873 N   0  0  0  0  0  0  0  0  0  0  0  0
    4.1585    0.0818   17.8284 C   0  0  0  0  0  0  0  0  0  0  0  0
    3.8176    0.7421   19.0416 C   0  0  0  0  0  0  0  0  0  0  0  0
    2.6281    1.5027   19.1720 C   0  0  0  0  0  0  0  0  0  0  0  0
    2.3162    2.1241   20.3506 C   0  0  0  0  0  0  0  0  0  0  0  0
    3.1911    2.0157   21.4519 C   0  0  0  0  0  0  0  0  0  0  0  0
    4.3509    1.2834   21.3531 C   0  0  0  0  0  0  0  0  0  0  0  0
    4.6936    0.6177   20.1458 C   0  0  0  0  0  0  0  0  0  0  0  0
    5.0027    1.1984   22.2154 H   0  0  0  0  0  0  0  0  0  0  0  0
    2.9402    2.5206   22.3795 H   0  0  0  0  0  0  0  0  0  0  0  0
    1.4044    2.7095   20.4381 H   0  0  0  0  0  0  0  0  0  0  0  0
    1.9755    1.6008   18.3142 H   0  0  0  0  0  0  0  0  0  0  0  0
    3.5056    0.2019   16.9609 H   0  0  0  0  0  0  0  0  0  0  0  0
    6.8677   -1.4861   18.6228 H   0  0  0  0  0  0  0  0  0  0  0  0
    7.8644   -0.6046   20.5811 H   0  0  0  0  0  0  0  0  0  0  0  0
    7.0469    0.5918   21.5888 H   0  0  0  0  0  0  0  0  0  0  0  0
    7.4672   -2.0571   22.8297 N   0  0  0  0  0  0  0  0  0  0  0  0
    7.2395   -3.3969   23.3783 C   0  0  0  0  0  0  0  0  0  0  0  0
    7.6139   -3.4705   24.8563 C   0  0  0  0  0  0  0  0  0  0  0  0
    8.9623   -2.8563   25.0686 C   0  0  0  0  0  0  0  0  0  0  0  0
    9.9880   -3.1506   26.4331 S   0  0  0  0  0  0  0  0  0  0  0  0
   11.1577   -2.0263   25.8431 C   0  0  0  0  0  0  0  0  0  0  0  0
   10.7751   -1.4659   24.6596 C   0  0  0  0  0  0  0  0  0  0  0  0
    9.5069   -1.9504   24.2141 C   0  0  0  0  0  0  0  0  0  0  0  0
    8.8148   -1.5203   22.9475 C   0  0  0  0  0  0  0  0  0  0  0  0
    9.4501   -1.7930   22.0903 H   0  0  0  0  0  0  0  0  0  0  0  0
    8.7783   -0.4263   22.9467 H   0  0  0  0  0  0  0  0  0  0  0  0
   11.3759   -0.7339   24.1255 H   0  0  0  0  0  0  0  0  0  0  0  0
   12.0646   -1.8423   26.4049 H   0  0  0  0  0  0  0  0  0  0  0  0
    6.8711   -2.9258   25.4510 H   0  0  0  0  0  0  0  0  0  0  0  0
    7.5881   -4.5065   25.2092 H   0  0  0  0  0  0  0  0  0  0  0  0
    7.8345   -4.1340   22.8216 H   0  0  0  0  0  0  0  0  0  0  0  0
    6.1898   -3.6568   23.2379 H   0  0  0  0  0  0  0  0  0  0  0  0
  1  2  2  0
  2  3  1  0
  3  4  1  0
  4  5  2  0
  5  6  1  0
  6  7  2  0
  7  8  1  0
  8  9  2  0
  9 10  1  0
 10 11  2  0
 11 12  1  0
 12 13  2  0
 12 14  1  0
 11 15  1  0
 10 16  1  0
  9 17  1  0
  7 18  1  0
  5 19  1  0
  3 20  1  0
  3 21  1  0
  2 22  1  0
 22 23  1  0
 23 24  1  0
 24 25  1  0
 25 26  1  0
 26 27  1  0
 27 28  2  0
 28 29  1  0
 29 30  1  0
 30 31  1  0
 30 32  1  0
 28 33  1  0
 27 34  1  0
 24 35  1  0
 24 36  1  0
 23 37  1  0
 23 38  1  0
 13  4  1  0
 30 22  1  0
 13  8  1  0
 29 25  2  0
M  END
>  <cnnaffinities>  (1) 
[5.09864, 5.09269, 5.05003, 5.10686, 5.23147]

>  <score>  (1) 
5.09864

>  <index>  (1) 
50

>  <Smiles>  (1) 
O=C(C(c1c(nc(c2c(c(c(c(c12)[H])[H])[H])[H])[H])[H])([H])[H])N1C(C(c2sc(c(c2C1([H])[H])[H])[H])([H])[H])([H])[H]

>  <h>  (1) 
<NA>

>  <Training>  (1) 
True

>  <Success>  (1) 
True

>  <enamine_searched>  (1) 
False

>  <enamine_id>  (1) 
nan

$$$$
