
     RDKit          3D

 55 60  0  0  0  0  0  0  0  0999 V2000
   10.0636    0.6758   22.4468 C   0  0  0  0  0  0  0  0  0  0  0  0
    8.6289    0.1689   22.4279 C   0  0  1  0  0  0  0  0  0  0  0  0
    7.8130    0.7078   21.2423 C   0  0  0  0  0  0  0  0  0  0  0  0
    6.7970   -0.3169   21.0524 N   0  0  0  0  0  0  0  0  0  0  0  0
    5.8600   -0.2064   19.9977 C   0  0  0  0  0  0  0  0  0  0  0  0
    6.0783   -0.8159   18.7898 C   0  0  0  0  0  0  0  0  0  0  0  0
    5.2962   -0.6358   17.6972 N   0  0  0  0  0  0  0  0  0  0  0  0
    4.2429    0.1356   17.8269 C   0  0  0  0  0  0  0  0  0  0  0  0
    3.8739    0.7903   19.0374 C   0  0  0  0  0  0  0  0  0  0  0  0
    2.7019    1.5824   19.1550 C   0  0  0  0  0  0  0  0  0  0  0  0
    2.3794    2.1627   20.3513 C   0  0  0  0  0  0  0  0  0  0  0  0
    3.2247    2.0107   21.4727 C   0  0  0  0  0  0  0  0  0  0  0  0
    4.3769    1.2704   21.3778 C   0  0  0  0  0  0  0  0  0  0  0  0
    4.7151    0.6308   20.1584 C   0  0  0  0  0  0  0  0  0  0  0  0
    5.0333    1.1501   22.2329 H   0  0  0  0  0  0  0  0  0  0  0  0
    2.9627    2.4859   22.4129 H   0  0  0  0  0  0  0  0  0  0  0  0
    1.4713    2.7518   20.4476 H   0  0  0  0  0  0  0  0  0  0  0  0
    2.0792    1.7265   18.2779 H   0  0  0  0  0  0  0  0  0  0  0  0
    3.6065    0.2510   16.9501 H   0  0  0  0  0  0  0  0  0  0  0  0
    6.9353   -1.4708   18.6508 H   0  0  0  0  0  0  0  0  0  0  0  0
    7.1795   -1.5533   21.5382 C   0  0  0  0  0  0  0  0  0  0  0  0
    6.5869   -2.5893   21.3102 O   0  0  0  0  0  0  0  0  0  0  0  0
    8.4559   -1.3978   22.3767 C   0  0  1  0  0  0  0  0  0  0  0  0
    9.5875   -2.1520   21.6127 C   0  0  0  0  0  0  0  0  0  0  0  0
   10.7847   -2.3701   22.4157 N   0  0  0  0  0  0  0  0  0  0  0  0
   12.1371   -2.3051   21.8612 C   0  0  0  0  0  0  0  0  0  0  0  0
   12.9093   -1.0979   22.2598 C   0  0  0  0  0  0  0  0  0  0  0  0
   13.5355   -0.9133   23.4415 C   0  0  0  0  0  0  0  0  0  0  0  0
   14.1877    0.2774   23.3842 O   0  0  0  0  0  0  0  0  0  0  0  0
   13.9451    0.7371   22.1458 C   0  0  0  0  0  0  0  0  0  0  0  0
   13.1877   -0.0265   21.4272 N   0  0  0  0  0  0  0  0  0  0  0  0
   14.4409    1.6539   21.8573 H   0  0  0  0  0  0  0  0  0  0  0  0
   13.6418   -1.5430   24.3136 H   0  0  0  0  0  0  0  0  0  0  0  0
   12.1375   -2.3987   20.7722 H   0  0  0  0  0  0  0  0  0  0  0  0
   12.6995   -3.1220   22.3197 H   0  0  0  0  0  0  0  0  0  0  0  0
   10.7079   -2.7935   23.7127 C   0  0  0  0  0  0  0  0  0  0  0  0
   11.6915   -3.2190   24.3155 O   0  0  0  0  0  0  0  0  0  0  0  0
    9.3772   -2.6563   24.3759 C   0  0  0  0  0  0  0  0  0  0  0  0
    9.2720   -3.1191   25.6863 C   0  0  0  0  0  0  0  0  0  0  0  0
    8.1015   -2.9915   26.4085 C   0  0  0  0  0  0  0  0  0  0  0  0
    7.0200   -2.3807   25.7857 C   0  0  0  0  0  0  0  0  0  0  0  0
    5.8715   -2.2501   26.4745 F   0  0  0  0  0  0  0  0  0  0  0  0
    7.0959   -1.8985   24.4876 C   0  0  0  0  0  0  0  0  0  0  0  0
    8.2948   -2.0183   23.7591 C   0  0  0  0  0  0  0  0  0  0  0  0
    6.2063   -1.4483   24.0585 H   0  0  0  0  0  0  0  0  0  0  0  0
    8.0211   -3.3410   27.4345 H   0  0  0  0  0  0  0  0  0  0  0  0
   10.1480   -3.5724   26.1341 H   0  0  0  0  0  0  0  0  0  0  0  0
    9.8866   -1.5675   20.7381 H   0  0  0  0  0  0  0  0  0  0  0  0
    9.1744   -3.1145   21.2701 H   0  0  0  0  0  0  0  0  0  0  0  0
    8.4267    0.8450   20.3354 H   0  0  0  0  0  0  0  0  0  0  0  0
    7.3546    1.6823   21.4468 H   0  0  0  0  0  0  0  0  0  0  0  0
    8.1204    0.4988   23.3466 H   0  0  0  0  0  0  0  0  0  0  0  0
   10.1027    1.7656   22.5577 H   0  0  0  0  0  0  0  0  0  0  0  0
   10.6217    0.2159   23.2672 H   0  0  0  0  0  0  0  0  0  0  0  0
   10.5852    0.4095   21.5231 H   0  0  0  0  0  0  0  0  0  0  0  0
  1  2  1  0
  2  3  1  0
  3  4  1  0
  4  5  1  0
  5  6  2  0
  6  7  1  0
  7  8  2  0
  8  9  1  0
  9 10  2  0
 10 11  1  0
 11 12  2  0
 12 13  1  0
 13 14  2  0
 13 15  1  0
 12 16  1  0
 11 17  1  0
 10 18  1  0
  8 19  1  0
  6 20  1  0
  4 21  1  0
 21 22  2  0
 21 23  1  0
 23 24  1  6
 24 25  1  0
 25 26  1  0
 26 27  1  0
 27 28  2  0
 28 29  1  0
 29 30  1  0
 30 31  2  0
 30 32  1  0
 28 33  1  0
 26 34  1  0
 26 35  1  0
 25 36  1  0
 36 37  2  0
 36 38  1  0
 38 39  2  0
 39 40  1  0
 40 41  2  0
 41 42  1  0
 41 43  1  0
 43 44  2  0
 43 45  1  0
 40 46  1  0
 39 47  1  0
 24 48  1  0
 24 49  1  0
  3 50  1  0
  3 51  1  0
  2 52  1  1
  1 53  1  0
  1 54  1  0
  1 55  1  0
 23  2  1  0
 31 27  1  0
 44 38  1  0
 14  5  1  0
 44 23  1  0
 14  9  1  0
M  END
>  <cnnaffinities>  (1) 
[6.55399]

>  <score>  (1) 
6.55399

>  <index>  (1) 
85

>  <Smiles>  (1) 
C([C@]1(C(N(c2c(nc(c3c(c(c(c(c23)[H])[H])[H])[H])[H])[H])C(=O)[C@]21C(N(C(c1c(oc(n1)[H])[H])([H])[H])C(=O)c1c(c(c(F)c(c21)[H])[H])[H])([H])[H])([H])[H])[H])([H])([H])[H]

>  <h>  (1) 
<NA>

>  <Training>  (1) 
True

>  <Success>  (1) 
True

>  <enamine_searched>  (1) 
False

>  <enamine_id>  (1) 
nan

$$$$
