
     RDKit          3D

 60 64  0  0  0  0  0  0  0  0999 V2000
    8.2728    6.0643   26.0528 C   0  0  0  0  0  0  0  0  0  0  0  0
    8.2730    5.4596   24.7315 N   0  0  0  0  0  0  0  0  0  0  0  0
    7.5889    4.3096   24.5247 C   0  0  0  0  0  0  0  0  0  0  0  0
    6.8698    3.8028   25.3746 O   0  0  0  0  0  0  0  0  0  0  0  0
    7.7183    3.6971   23.1227 C   0  0  0  0  0  0  0  0  0  0  0  0
    8.6319    2.5793   23.0459 N   0  0  0  0  0  0  0  0  0  0  0  0
    8.2095    1.2605   23.4739 C   0  0  0  0  0  0  0  0  0  0  0  0
    8.6600    0.1954   22.4380 C   0  0  2  0  0  0  0  0  0  0  0  0
    7.9419    0.4937   21.0996 C   0  0  0  0  0  0  0  0  0  0  0  0
    8.2432    1.3311   20.2834 O   0  0  0  0  0  0  0  0  0  0  0  0
    6.8488   -0.3377   20.9948 N   0  0  0  0  0  0  0  0  0  0  0  0
    5.8937   -0.1638   19.9628 C   0  0  0  0  0  0  0  0  0  0  0  0
    6.0727   -0.7988   18.7624 C   0  0  0  0  0  0  0  0  0  0  0  0
    5.2464   -0.6683   17.6960 N   0  0  0  0  0  0  0  0  0  0  0  0
    4.1859    0.0882   17.8441 C   0  0  0  0  0  0  0  0  0  0  0  0
    3.8374    0.7547   19.0546 C   0  0  0  0  0  0  0  0  0  0  0  0
    2.6539    1.5324   19.1789 C   0  0  0  0  0  0  0  0  0  0  0  0
    2.3505    2.1617   20.3528 C   0  0  0  0  0  0  0  0  0  0  0  0
    3.2309    2.0616   21.4521 C   0  0  0  0  0  0  0  0  0  0  0  0
    4.3850    1.3222   21.3569 C   0  0  0  0  0  0  0  0  0  0  0  0
    4.7178    0.6377   20.1526 C   0  0  0  0  0  0  0  0  0  0  0  0
    5.0597    1.2634   22.2064 H   0  0  0  0  0  0  0  0  0  0  0  0
    3.0044    2.5911   22.3714 H   0  0  0  0  0  0  0  0  0  0  0  0
    1.4418    2.7501   20.4406 H   0  0  0  0  0  0  0  0  0  0  0  0
    2.0083    1.6374   18.3163 H   0  0  0  0  0  0  0  0  0  0  0  0
    3.5251    0.1810   16.9827 H   0  0  0  0  0  0  0  0  0  0  0  0
    6.9251   -1.4582   18.6183 H   0  0  0  0  0  0  0  0  0  0  0  0
    6.7050   -1.2673   22.0905 C   0  0  0  0  0  0  0  0  0  0  0  0
    8.1054   -1.2272   22.7589 C   0  0  2  0  0  0  0  0  0  0  0  0
    8.0630   -1.6185   24.1615 N   0  0  0  0  0  0  0  0  0  0  0  0
    7.5786   -2.8404   24.5416 C   0  0  0  0  0  0  0  0  0  0  0  0
    7.1477   -3.6498   23.7287 O   0  0  0  0  0  0  0  0  0  0  0  0
    7.5979   -3.1307   26.0334 C   0  0  0  0  0  0  0  0  0  0  0  0
    6.8973   -3.9471   26.2205 H   0  0  0  0  0  0  0  0  0  0  0  0
    7.3123   -2.2718   26.6514 H   0  0  0  0  0  0  0  0  0  0  0  0
    8.5903   -3.4559   26.3699 H   0  0  0  0  0  0  0  0  0  0  0  0
    8.5267   -1.0486   24.8519 H   0  0  0  0  0  0  0  0  0  0  0  0
    8.7216   -1.9546   22.2216 H   0  0  0  0  0  0  0  0  0  0  0  0
    5.9319   -0.9578   22.8104 H   0  0  0  0  0  0  0  0  0  0  0  0
    6.4418   -2.2656   21.7317 H   0  0  0  0  0  0  0  0  0  0  0  0
   10.1636    0.3545   22.2819 C   0  0  0  0  0  0  0  0  0  0  0  0
   10.9714   -0.7068   21.8560 C   0  0  0  0  0  0  0  0  0  0  0  0
   12.3307   -0.5129   21.6800 C   0  0  0  0  0  0  0  0  0  0  0  0
   13.3235   -1.8339   21.1387 Cl  0  0  0  0  0  0  0  0  0  0  0  0
   12.9256    0.7292   21.8910 C   0  0  0  0  0  0  0  0  0  0  0  0
   12.1295    1.7946   22.2636 C   0  0  0  0  0  0  0  0  0  0  0  0
   10.7604    1.6207   22.4456 C   0  0  0  0  0  0  0  0  0  0  0  0
    9.9377    2.8346   22.7625 C   0  0  0  0  0  0  0  0  0  0  0  0
   10.3881    3.9794   22.7542 O   0  0  0  0  0  0  0  0  0  0  0  0
   12.5327    2.7920   22.4057 H   0  0  0  0  0  0  0  0  0  0  0  0
   13.9898    0.8568   21.7325 H   0  0  0  0  0  0  0  0  0  0  0  0
   10.5578   -1.6825   21.6241 H   0  0  0  0  0  0  0  0  0  0  0  0
    7.1193    1.2804   23.5715 H   0  0  0  0  0  0  0  0  0  0  0  0
    8.6500    1.0312   24.4551 H   0  0  0  0  0  0  0  0  0  0  0  0
    8.0330    4.4349   22.3786 H   0  0  0  0  0  0  0  0  0  0  0  0
    6.7219    3.3325   22.8577 H   0  0  0  0  0  0  0  0  0  0  0  0
    8.9709    5.7176   24.0467 H   0  0  0  0  0  0  0  0  0  0  0  0
    8.5731    5.3485   26.8225 H   0  0  0  0  0  0  0  0  0  0  0  0
    8.9701    6.9049   26.0515 H   0  0  0  0  0  0  0  0  0  0  0  0
    7.2688    6.4045   26.3317 H   0  0  0  0  0  0  0  0  0  0  0  0
  1  2  1  0
  2  3  1  0
  3  4  2  0
  3  5  1  0
  5  6  1  0
  6  7  1  0
  8  7  1  1
  8  9  1  0
  9 10  2  0
  9 11  1  0
 11 12  1  0
 12 13  2  0
 13 14  1  0
 14 15  2  0
 15 16  1  0
 16 17  2  0
 17 18  1  0
 18 19  2  0
 19 20  1  0
 20 21  2  0
 20 22  1  0
 19 23  1  0
 18 24  1  0
 17 25  1  0
 15 26  1  0
 13 27  1  0
 11 28  1  0
 28 29  1  0
 29 30  1  0
 30 31  1  0
 31 32  2  0
 31 33  1  0
 33 34  1  0
 33 35  1  0
 33 36  1  0
 30 37  1  0
 29 38  1  6
 28 39  1  0
 28 40  1  0
  8 41  1  0
 41 42  2  0
 42 43  1  0
 43 44  1  0
 43 45  2  0
 45 46  1  0
 46 47  2  0
 47 48  1  0
 48 49  2  0
 46 50  1  0
 45 51  1  0
 42 52  1  0
  7 53  1  0
  7 54  1  0
  5 55  1  0
  5 56  1  0
  2 57  1  0
  1 58  1  0
  1 59  1  0
  1 60  1  0
 48  6  1  0
 29  8  1  0
 47 41  1  0
 21 12  1  0
 21 16  1  0
M  END
>  <cnnaffinities>  (1) 
[6.05589, 6.13693, 5.87553, 6.07426, 6.14646, 6.22595]

>  <score>  (1) 
6.05589

>  <index>  (1) 
72

>  <Smiles>  (1) 
C(N(C(=O)C(N1C([C@@]2(C(=O)N(c3c(nc(c4c(c(c(c(c34)[H])[H])[H])[H])[H])[H])C([C@@]2(N(C(=O)C([H])([H])[H])[H])[H])([H])[H])c2c(c(Cl)c(c(c2C1=O)[H])[H])[H])([H])[H])([H])[H])[H])([H])([H])[H]

>  <h>  (1) 
<NA>

>  <Training>  (1) 
True

>  <Success>  (1) 
True

>  <enamine_searched>  (1) 
False

>  <enamine_id>  (1) 
nan

$$$$
