
     RDKit          3D

 60 65  0  0  0  0  0  0  0  0999 V2000
    6.9235    5.7453   26.8989 C   0  0  0  0  0  0  0  0  0  0  0  0
    7.0500    5.3290   25.5197 N   0  0  0  0  0  0  0  0  0  0  0  0
    7.5127    4.0835   25.2142 C   0  0  0  0  0  0  0  0  0  0  0  0
    7.6958    3.2309   26.0687 O   0  0  0  0  0  0  0  0  0  0  0  0
    7.7700    3.8119   23.7486 C   0  0  0  0  0  0  0  0  0  0  0  0
    8.6043    2.6895   23.4440 N   0  0  0  0  0  0  0  0  0  0  0  0
    8.0618    1.3662   23.6599 C   0  0  0  0  0  0  0  0  0  0  0  0
    8.4947    0.3737   22.5534 C   0  0  2  0  0  0  0  0  0  0  0  0
    7.7717    0.6873   21.2270 C   0  0  0  0  0  0  0  0  0  0  0  0
    7.9421    1.6439   20.5043 O   0  0  0  0  0  0  0  0  0  0  0  0
    6.8596   -0.3118   20.9723 N   0  0  0  0  0  0  0  0  0  0  0  0
    5.8892   -0.1683   19.9514 C   0  0  0  0  0  0  0  0  0  0  0  0
    6.0776   -0.7978   18.7508 C   0  0  0  0  0  0  0  0  0  0  0  0
    5.2548   -0.6603   17.6830 N   0  0  0  0  0  0  0  0  0  0  0  0
    4.1944    0.0966   17.8345 C   0  0  0  0  0  0  0  0  0  0  0  0
    3.8554    0.7662   19.0466 C   0  0  0  0  0  0  0  0  0  0  0  0
    2.6760    1.5469   19.1750 C   0  0  0  0  0  0  0  0  0  0  0  0
    2.3613    2.1498   20.3604 C   0  0  0  0  0  0  0  0  0  0  0  0
    3.2231    2.0235   21.4740 C   0  0  0  0  0  0  0  0  0  0  0  0
    4.3713    1.2757   21.3769 C   0  0  0  0  0  0  0  0  0  0  0  0
    4.7204    0.6285   20.1542 C   0  0  0  0  0  0  0  0  0  0  0  0
    5.0143    1.1801   22.2485 H   0  0  0  0  0  0  0  0  0  0  0  0
    2.9806    2.5288   22.4064 H   0  0  0  0  0  0  0  0  0  0  0  0
    1.4477    2.7330   20.4531 H   0  0  0  0  0  0  0  0  0  0  0  0
    2.0424    1.6723   18.3020 H   0  0  0  0  0  0  0  0  0  0  0  0
    3.5213    0.1957   16.9802 H   0  0  0  0  0  0  0  0  0  0  0  0
    6.9407   -1.4472   18.6057 H   0  0  0  0  0  0  0  0  0  0  0  0
    6.7712   -1.3178   22.0015 C   0  0  0  0  0  0  0  0  0  0  0  0
    8.0377   -1.0913   22.8393 C   0  0  2  0  0  0  0  0  0  0  0  0
    7.8432   -1.4984   24.2968 C   0  0  0  0  0  0  0  0  0  0  0  0
    8.7485   -1.3588   24.8984 H   0  0  0  0  0  0  0  0  0  0  0  0
    7.5627   -2.5552   24.3663 H   0  0  0  0  0  0  0  0  0  0  0  0
    7.0372   -0.9149   24.7556 H   0  0  0  0  0  0  0  0  0  0  0  0
    8.8172   -1.7304   22.4277 H   0  0  0  0  0  0  0  0  0  0  0  0
    5.8680   -1.1878   22.6164 H   0  0  0  0  0  0  0  0  0  0  0  0
    6.7337   -2.3157   21.5517 H   0  0  0  0  0  0  0  0  0  0  0  0
    9.9937    0.5099   22.3584 C   0  0  0  0  0  0  0  0  0  0  0  0
   10.7025   -0.4933   21.6822 C   0  0  0  0  0  0  0  0  0  0  0  0
   12.0729   -0.3993   21.5370 C   0  0  0  0  0  0  0  0  0  0  0  0
   12.9114   -1.6850   20.7043 Cl  0  0  0  0  0  0  0  0  0  0  0  0
   12.7694    0.7431   21.9358 C   0  0  0  0  0  0  0  0  0  0  0  0
   12.0631    1.7747   22.5269 C   0  0  0  0  0  0  0  0  0  0  0  0
   10.6864    1.6664   22.7419 C   0  0  0  0  0  0  0  0  0  0  0  0
    9.9598    2.8648   23.2731 C   0  0  0  0  0  0  0  0  0  0  0  0
   10.5132    3.9363   23.4775 O   0  0  0  0  0  0  0  0  0  0  0  0
   12.5561    2.6991   22.8132 H   0  0  0  0  0  0  0  0  0  0  0  0
   13.8354    0.8165   21.7442 H   0  0  0  0  0  0  0  0  0  0  0  0
   10.1989   -1.3477   21.2409 H   0  0  0  0  0  0  0  0  0  0  0  0
    6.9768    1.4603   23.7095 H   0  0  0  0  0  0  0  0  0  0  0  0
    8.4163    0.9936   24.6269 H   0  0  0  0  0  0  0  0  0  0  0  0
    6.5547    3.9989   22.8489 C   0  0  0  0  0  0  0  0  0  0  0  0
    7.7339    4.8957   22.7086 C   0  0  0  0  0  0  0  0  0  0  0  0
    8.3685    4.7041   21.8549 H   0  0  0  0  0  0  0  0  0  0  0  0
    7.7126    5.9354   23.0116 H   0  0  0  0  0  0  0  0  0  0  0  0
    5.6509    4.3758   23.3132 H   0  0  0  0  0  0  0  0  0  0  0  0
    6.4158    3.2472   22.0799 H   0  0  0  0  0  0  0  0  0  0  0  0
    6.5786    5.8603   24.8082 H   0  0  0  0  0  0  0  0  0  0  0  0
    6.4974    4.9280   27.4837 H   0  0  0  0  0  0  0  0  0  0  0  0
    6.2810    6.6261   26.9617 H   0  0  0  0  0  0  0  0  0  0  0  0
    7.9055    5.9947   27.3121 H   0  0  0  0  0  0  0  0  0  0  0  0
  1  2  1  0
  2  3  1  0
  3  4  2  0
  3  5  1  0
  5  6  1  0
  6  7  1  0
  8  7  1  1
  8  9  1  0
  9 10  2  0
  9 11  1  0
 11 12  1  0
 12 13  2  0
 13 14  1  0
 14 15  2  0
 15 16  1  0
 16 17  2  0
 17 18  1  0
 18 19  2  0
 19 20  1  0
 20 21  2  0
 20 22  1  0
 19 23  1  0
 18 24  1  0
 17 25  1  0
 15 26  1  0
 13 27  1  0
 11 28  1  0
 28 29  1  0
 29 30  1  0
 30 31  1  0
 30 32  1  0
 30 33  1  0
 29 34  1  6
 28 35  1  0
 28 36  1  0
  8 37  1  0
 37 38  2  0
 38 39  1  0
 39 40  1  0
 39 41  2  0
 41 42  1  0
 42 43  2  0
 43 44  1  0
 44 45  2  0
 42 46  1  0
 41 47  1  0
 38 48  1  0
  7 49  1  0
  7 50  1  0
  5 51  1  0
 51 52  1  0
 52 53  1  0
 52 54  1  0
 51 55  1  0
 51 56  1  0
  2 57  1  0
  1 58  1  0
  1 59  1  0
  1 60  1  0
 52  5  1  0
 44  6  1  0
 29  8  1  0
 43 37  1  0
 21 12  1  0
 21 16  1  0
M  END
>  <cnnaffinities>  (1) 
[6.15437, 6.31384, 6.14014]

>  <score>  (1) 
6.15437

>  <index>  (1) 
84

>  <Smiles>  (1) 
C(N(C(=O)C1(N2C([C@@]3(C(=O)N(c4c(nc(c5c(c(c(c(c45)[H])[H])[H])[H])[H])[H])C([C@@]3(C([H])([H])[H])[H])([H])[H])c3c(c(Cl)c(c(c3C2=O)[H])[H])[H])([H])[H])C(C1([H])[H])([H])[H])[H])([H])([H])[H]

>  <h>  (1) 
<NA>

>  <Training>  (1) 
True

>  <Success>  (1) 
True

>  <enamine_searched>  (1) 
False

>  <enamine_id>  (1) 
nan

$$$$
