
     RDKit          3D

 46 48  0  0  0  0  0  0  0  0999 V2000
    7.9037    1.7392   24.0125 C   0  0  0  0  0  0  0  0  0  0  0  0
    8.3381    0.4545   24.7006 C   0  0  0  0  0  0  0  0  0  0  0  0
    8.2142   -0.7805   23.8051 C   0  0  1  0  0  0  0  0  0  0  0  0
    8.9216   -2.0347   24.3605 C   0  0  0  0  0  0  0  0  0  0  0  0
    8.1373   -2.8895   25.3643 C   0  0  1  0  0  0  0  0  0  0  0  0
    8.3305   -2.4868   26.8147 C   0  0  0  0  0  0  0  0  0  0  0  0
    7.9216   -3.4637   27.6528 F   0  0  0  0  0  0  0  0  0  0  0  0
    7.6326   -1.3847   27.1643 F   0  0  0  0  0  0  0  0  0  0  0  0
    9.6265   -2.2557   27.0958 F   0  0  0  0  0  0  0  0  0  0  0  0
    6.6623   -3.0193   24.9943 C   0  0  0  0  0  0  0  0  0  0  0  0
    6.0468   -1.7024   24.5346 C   0  0  0  0  0  0  0  0  0  0  0  0
    6.8203   -1.0872   23.4593 N   0  0  0  0  0  0  0  0  0  0  0  0
    6.3902   -1.3087   22.1566 C   0  0  0  0  0  0  0  0  0  0  0  0
    5.5943   -2.1870   21.8786 O   0  0  0  0  0  0  0  0  0  0  0  0
    6.8858   -0.3401   21.0677 C   0  0  0  0  0  0  0  0  0  0  0  0
    5.8686   -0.1738   19.9661 C   0  0  0  0  0  0  0  0  0  0  0  0
    6.0316   -0.8096   18.7632 C   0  0  0  0  0  0  0  0  0  0  0  0
    5.2149   -0.6818   17.6833 N   0  0  0  0  0  0  0  0  0  0  0  0
    4.1582    0.0818   17.8268 C   0  0  0  0  0  0  0  0  0  0  0  0
    3.8185    0.7436   19.0402 C   0  0  0  0  0  0  0  0  0  0  0  0
    2.6307    1.5047   19.1727 C   0  0  0  0  0  0  0  0  0  0  0  0
    2.3196    2.1286   20.3514 C   0  0  0  0  0  0  0  0  0  0  0  0
    3.1975    2.0219   21.4508 C   0  0  0  0  0  0  0  0  0  0  0  0
    4.3564    1.2867   21.3502 C   0  0  0  0  0  0  0  0  0  0  0  0
    4.6961    0.6190   20.1434 C   0  0  0  0  0  0  0  0  0  0  0  0
    5.0139    1.2198   22.2113 H   0  0  0  0  0  0  0  0  0  0  0  0
    2.9507    2.5311   22.3761 H   0  0  0  0  0  0  0  0  0  0  0  0
    1.4087    2.7151   20.4394 H   0  0  0  0  0  0  0  0  0  0  0  0
    1.9766    1.6037   18.3160 H   0  0  0  0  0  0  0  0  0  0  0  0
    3.5049    0.2014   16.9597 H   0  0  0  0  0  0  0  0  0  0  0  0
    6.8706   -1.4868   18.6169 H   0  0  0  0  0  0  0  0  0  0  0  0
    7.1501    0.6397   21.4934 H   0  0  0  0  0  0  0  0  0  0  0  0
    7.8047   -0.7545   20.6337 H   0  0  0  0  0  0  0  0  0  0  0  0
    5.0280   -1.8673   24.1809 H   0  0  0  0  0  0  0  0  0  0  0  0
    5.9897   -1.0081   25.3754 H   0  0  0  0  0  0  0  0  0  0  0  0
    6.5793   -3.7223   24.1652 H   0  0  0  0  0  0  0  0  0  0  0  0
    6.0935   -3.4471   25.8285 H   0  0  0  0  0  0  0  0  0  0  0  0
    8.5841   -3.8897   25.3632 H   0  0  0  0  0  0  0  0  0  0  0  0
    9.8924   -1.7553   24.7810 H   0  0  0  0  0  0  0  0  0  0  0  0
    9.1472   -2.6846   23.5100 H   0  0  0  0  0  0  0  0  0  0  0  0
    8.7286   -0.5414   22.8699 H   0  0  0  0  0  0  0  0  0  0  0  0
    9.3886    0.5542   24.9993 H   0  0  0  0  0  0  0  0  0  0  0  0
    7.7774    0.3119   25.6237 H   0  0  0  0  0  0  0  0  0  0  0  0
    8.4850    1.9246   23.1022 H   0  0  0  0  0  0  0  0  0  0  0  0
    6.8467    1.6982   23.7347 H   0  0  0  0  0  0  0  0  0  0  0  0
    8.0423    2.6032   24.6673 H   0  0  0  0  0  0  0  0  0  0  0  0
  1  2  1  0
  2  3  1  0
  3  4  1  0
  4  5  1  0
  5  6  1  0
  6  7  1  0
  6  8  1  0
  6  9  1  0
  5 10  1  0
 10 11  1  0
 11 12  1  0
 12 13  1  0
 13 14  2  0
 13 15  1  0
 15 16  1  0
 16 17  2  0
 17 18  1  0
 18 19  2  0
 19 20  1  0
 20 21  2  0
 21 22  1  0
 22 23  2  0
 23 24  1  0
 24 25  2  0
 24 26  1  0
 23 27  1  0
 22 28  1  0
 21 29  1  0
 19 30  1  0
 17 31  1  0
 15 32  1  0
 15 33  1  0
 11 34  1  0
 11 35  1  0
 10 36  1  0
 10 37  1  0
  5 38  1  1
  4 39  1  0
  4 40  1  0
  3 41  1  6
  2 42  1  0
  2 43  1  0
  1 44  1  0
  1 45  1  0
  1 46  1  0
 12  3  1  0
 25 16  1  0
 25 20  1  0
M  END
>  <cnnaffinities>  (1) 
[5.40479, 5.40481, 5.40478, 5.56655, 5.56717, 5.56751, 5.56801, 5.56853, 5.75755, 5.01037, 5.2823, 5.28469, 5.60881, 5.27811, 5.27801, 5.74967, 5.27783, 5.74946, 5.74938, 5.47751, 5.4775, 5.00827, 5.00819, 5.00811, 5.0081, 5.00774, 5.63352, 5.63343, 5.63344, 5.63343, 5.81974, 5.39533, 5.817]

>  <score>  (1) 
5.40479

>  <index>  (1) 
27

>  <Smiles>  (1) 
C(C([C@]1(C([C@@](C(F)(F)F)(C(C(N1C(=O)C(c1c(nc(c2c(c(c(c(c12)[H])[H])[H])[H])[H])[H])([H])[H])([H])[H])([H])[H])[H])([H])[H])[H])([H])[H])([H])([H])[H]

>  <h>  (1) 
<NA>

>  <Training>  (1) 
True

>  <Success>  (1) 
True

>  <enamine_searched>  (1) 
False

>  <enamine_id>  (1) 
nan

$$$$
