
     RDKit          3D

 47 50  0  0  0  0  0  0  0  0999 V2000
    6.1295   -2.9981   25.4840 O   0  0  0  0  0  0  0  0  0  0  0  0
    6.3472   -3.9911   24.8213 C   0  0  0  0  0  0  0  0  0  0  0  0
    5.7625   -5.3403   25.2360 C   0  0  0  0  0  0  0  0  0  0  0  0
    6.0986   -5.6310   26.6782 C   0  0  0  0  0  0  0  0  0  0  0  0
    7.3848   -5.9394   27.0262 C   0  0  0  0  0  0  0  0  0  0  0  0
    7.7629   -6.4514   28.2237 N   0  0  0  0  0  0  0  0  0  0  0  0
    6.8234   -6.6290   29.1211 C   0  0  0  0  0  0  0  0  0  0  0  0
    5.4702   -6.2257   28.9400 C   0  0  0  0  0  0  0  0  0  0  0  0
    4.4719   -6.3951   29.9324 C   0  0  0  0  0  0  0  0  0  0  0  0
    3.2208   -5.8689   29.7488 C   0  0  0  0  0  0  0  0  0  0  0  0
    2.9251   -5.1110   28.5934 C   0  0  0  0  0  0  0  0  0  0  0  0
    3.8711   -4.9495   27.6135 C   0  0  0  0  0  0  0  0  0  0  0  0
    5.1321   -5.5888   27.7260 C   0  0  0  0  0  0  0  0  0  0  0  0
    7.1491   -3.9907   23.6985 N   0  0  0  0  0  0  0  0  0  0  0  0
    6.8277   -4.6716   22.4506 C   0  0  0  0  0  0  0  0  0  0  0  0
    6.6177   -3.5000   21.4873 C   0  0  2  0  0  0  0  0  0  0  0  0
    6.5612   -3.9508   20.0519 C   0  0  0  0  0  0  0  0  0  0  0  0
    5.4151   -4.7214   19.8910 F   0  0  0  0  0  0  0  0  0  0  0  0
    7.6488   -2.4258   21.9062 C   0  0  0  0  0  0  0  0  0  0  0  0
    7.0642   -0.9989   21.7592 C   0  0  0  0  0  0  0  0  0  0  0  0
    8.2495   -0.0068   21.8026 C   0  0  0  0  0  0  0  0  0  0  0  0
    9.4980   -0.8739   21.5080 C   0  0  0  0  0  0  0  0  0  0  0  0
    8.9113   -2.2169   21.0459 C   0  0  0  0  0  0  0  0  0  0  0  0
    8.0170   -2.8572   23.3628 C   0  0  0  0  0  0  0  0  0  0  0  0
    4.6776   -5.3154   25.0913 H   0  0  0  0  0  0  0  0  0  0  0  0
    6.1647   -6.1361   24.5956 H   0  0  0  0  0  0  0  0  0  0  0  0
    8.1893   -5.8189   26.3044 H   0  0  0  0  0  0  0  0  0  0  0  0
    7.1280   -7.0762   30.0667 H   0  0  0  0  0  0  0  0  0  0  0  0
    4.7228   -6.9111   30.8543 H   0  0  0  0  0  0  0  0  0  0  0  0
    2.4532   -6.0095   30.5028 H   0  0  0  0  0  0  0  0  0  0  0  0
    1.9406   -4.6641   28.4838 H   0  0  0  0  0  0  0  0  0  0  0  0
    3.6800   -4.3061   26.7588 H   0  0  0  0  0  0  0  0  0  0  0  0
    7.6776   -5.2985   22.1417 H   0  0  0  0  0  0  0  0  0  0  0  0
    5.9287   -5.2934   22.5116 H   0  0  0  0  0  0  0  0  0  0  0  0
    5.6392   -3.0677   21.7184 H   0  0  0  0  0  0  0  0  0  0  0  0
    7.4278   -4.5776   19.8323 H   0  0  0  0  0  0  0  0  0  0  0  0
    6.5101   -3.1197   19.3371 H   0  0  0  0  0  0  0  0  0  0  0  0
    6.2710   -0.7908   22.4849 H   0  0  0  0  0  0  0  0  0  0  0  0
    6.6067   -0.9556   20.7602 H   0  0  0  0  0  0  0  0  0  0  0  0
    8.3223    0.4855   22.7792 H   0  0  0  0  0  0  0  0  0  0  0  0
    8.1230    0.7859   21.0524 H   0  0  0  0  0  0  0  0  0  0  0  0
   10.1045   -1.0099   22.4124 H   0  0  0  0  0  0  0  0  0  0  0  0
   10.1620   -0.4212   20.7579 H   0  0  0  0  0  0  0  0  0  0  0  0
    8.5997   -2.0788   20.0077 H   0  0  0  0  0  0  0  0  0  0  0  0
    9.6372   -3.0283   21.1058 H   0  0  0  0  0  0  0  0  0  0  0  0
    7.9107   -2.0573   24.1003 H   0  0  0  0  0  0  0  0  0  0  0  0
    9.0680   -3.1858   23.3868 H   0  0  0  0  0  0  0  0  0  0  0  0
  1  2  2  0
  2  3  1  0
  3  4  1  0
  4  5  2  0
  5  6  1  0
  6  7  2  0
  7  8  1  0
  8  9  2  0
  9 10  1  0
 10 11  2  0
 11 12  1  0
 12 13  2  0
  2 14  1  0
 14 15  1  0
 15 16  1  0
 16 17  1  0
 17 18  1  0
 16 19  1  0
 19 20  1  0
 20 21  1  0
 21 22  1  0
 22 23  1  0
 19 24  1  0
 13  4  1  0
 24 14  1  0
 13  8  1  0
 23 19  1  0
  3 25  1  0
  3 26  1  0
  5 27  1  0
  7 28  1  0
  9 29  1  0
 10 30  1  0
 11 31  1  0
 12 32  1  0
 15 33  1  0
 15 34  1  0
 16 35  1  1
 17 36  1  0
 17 37  1  0
 20 38  1  0
 20 39  1  0
 21 40  1  0
 21 41  1  0
 22 42  1  0
 22 43  1  0
 23 44  1  0
 23 45  1  0
 24 46  1  0
 24 47  1  0
M  END
$$$$
