
     RDKit          3D

 38 41  0  0  0  0  0  0  0  0999 V2000
  -11.1341   -4.1059  -25.0956 C   0  0  0  0  0  0  0  0  0  0  0  0
  -10.9215   -3.0389  -24.0279 C   0  0  2  0  0  0  0  0  0  0  0  0
  -11.1067   -1.6292  -24.5821 C   0  0  0  0  0  0  0  0  0  0  0  0
  -10.9901   -0.5696  -23.4771 C   0  0  0  0  0  0  0  0  0  0  0  0
   -9.8523   -0.8261  -22.5777 C   0  0  0  0  0  0  0  0  0  0  0  0
   -9.3656   -0.0394  -21.4749 C   0  0  0  0  0  0  0  0  0  0  0  0
   -9.7168    1.0373  -21.0443 O   0  0  0  0  0  1  0  0  0  0  0  0
   -8.3624   -0.8403  -20.8752 N   0  0  0  0  0  0  0  0  0  0  0  0
   -7.4958   -0.3407  -19.8577 C   0  0  0  0  0  0  0  0  0  0  0  0
   -7.7831   -0.5327  -18.5300 C   0  0  0  0  0  0  0  0  0  0  0  0
   -7.1185    0.0567  -17.4987 N   0  0  0  0  0  0  0  0  0  0  0  0
   -6.1252    0.8648  -17.7892 C   0  0  0  0  0  0  0  0  0  0  0  0
   -5.6797    1.1146  -19.1189 C   0  0  0  0  0  0  0  0  0  0  0  0
   -4.5949    1.9927  -19.4011 C   0  0  0  0  0  0  0  0  0  0  0  0
   -4.1881    2.1889  -20.6936 C   0  0  0  0  0  0  0  0  0  0  0  0
   -4.8430    1.5270  -21.7550 C   0  0  0  0  0  0  0  0  0  0  0  0
   -5.9024    0.6881  -21.5110 C   0  0  0  0  0  0  0  0  0  0  0  0
   -6.3573    0.4703  -20.1824 C   0  0  0  0  0  0  0  0  0  0  0  0
   -8.3018   -2.1004  -21.4819 C   0  0  0  0  0  0  0  0  0  0  0  0
   -7.5778   -3.0197  -21.1846 O   0  0  0  0  0  0  0  0  0  0  0  0
   -9.2536   -2.0437  -22.4985 N   0  0  0  0  0  0  0  0  0  0  0  0
   -9.5377   -3.1652  -23.3893 C   0  0  0  0  0  0  0  0  0  0  0  0
  -12.1391   -4.0410  -25.5212 H   0  0  0  0  0  0  0  0  0  0  0  0
  -11.0104   -5.1145  -24.6911 H   0  0  0  0  0  0  0  0  0  0  0  0
  -10.4217   -3.9850  -25.9171 H   0  0  0  0  0  0  0  0  0  0  0  0
  -11.6658   -3.1987  -23.2398 H   0  0  0  0  0  0  0  0  0  0  0  0
  -12.0795   -1.5587  -25.0889 H   0  0  0  0  0  0  0  0  0  0  0  0
  -10.3539   -1.4419  -25.3557 H   0  0  0  0  0  0  0  0  0  0  0  0
  -11.9112   -0.5820  -22.8854 H   0  0  0  0  0  0  0  0  0  0  0  0
  -10.9708    0.4289  -23.9235 H   0  0  0  0  0  0  0  0  0  0  0  0
   -8.6131   -1.1702  -18.2377 H   0  0  0  0  0  0  0  0  0  0  0  0
   -5.6106    1.3617  -16.9613 H   0  0  0  0  0  0  0  0  0  0  0  0
   -4.0933    2.5082  -18.5844 H   0  0  0  0  0  0  0  0  0  0  0  0
   -3.3565    2.8547  -20.9153 H   0  0  0  0  0  0  0  0  0  0  0  0
   -4.5074    1.6867  -22.7763 H   0  0  0  0  0  0  0  0  0  0  0  0
   -6.4061    0.1901  -22.3328 H   0  0  0  0  0  0  0  0  0  0  0  0
   -8.7626   -3.2242  -24.1596 H   0  0  0  0  0  0  0  0  0  0  0  0
   -9.4566   -4.0896  -22.8192 H   0  0  0  0  0  0  0  0  0  0  0  0
  1  2  1  0
  2  3  1  0
  3  4  1  0
  4  5  1  0
  5  6  2  0
  6  7  1  0
  6  8  1  0
  8  9  1  0
  9 10  2  0
 10 11  1  0
 11 12  2  0
 12 13  1  0
 13 14  2  0
 14 15  1  0
 15 16  2  0
 16 17  1  0
 17 18  2  0
  8 19  1  0
 19 20  2  0
 19 21  1  0
 21 22  1  0
 22  2  1  0
 21  5  1  0
 18  9  1  0
 18 13  1  0
  1 23  1  0
  1 24  1  0
  1 25  1  0
  2 26  1  1
  3 27  1  0
  3 28  1  0
  4 29  1  0
  4 30  1  0
 10 31  1  0
 12 32  1  0
 14 33  1  0
 15 34  1  0
 16 35  1  0
 17 36  1  0
 22 37  1  0
 22 38  1  0
M  CHG  1   7  -1
M  END
$$$$
