
     RDKit          3D

 47 50  0  0  0  0  0  0  0  0999 V2000
  -11.9541    1.1725  -23.1021 C   0  0  0  0  0  0  0  0  0  0  0  0
  -11.7922   -0.1869  -23.7770 C   0  0  1  0  0  0  0  0  0  0  0  0
  -10.7234   -0.1544  -24.8751 C   0  0  0  0  0  0  0  0  0  0  0  0
   -9.3874   -0.4020  -24.1314 C   0  0  2  0  0  0  0  0  0  0  0  0
   -8.4302   -1.2668  -24.9207 C   0  0  0  0  0  0  0  0  0  0  0  0
   -7.2774   -0.7254  -25.4815 C   0  0  0  0  0  0  0  0  0  0  0  0
   -6.3939   -1.5284  -26.1927 C   0  0  0  0  0  0  0  0  0  0  0  0
   -6.6602   -2.8821  -26.3596 C   0  0  0  0  0  0  0  0  0  0  0  0
   -7.8215   -3.4284  -25.8213 C   0  0  0  0  0  0  0  0  0  0  0  0
   -8.7023   -2.6230  -25.1122 C   0  0  0  0  0  0  0  0  0  0  0  0
   -9.7381   -1.0589  -22.8402 N   0  0  0  0  0  0  0  0  0  0  0  0
   -9.1004   -0.5524  -21.6539 C   0  0  0  0  0  0  0  0  0  0  0  0
   -9.4722    0.4721  -21.1252 O   0  0  0  0  0  0  0  0  0  0  0  0
   -7.9388   -1.3887  -21.0844 C   0  0  0  0  0  0  0  0  0  0  0  0
   -7.2272   -0.6327  -19.9993 C   0  0  0  0  0  0  0  0  0  0  0  0
   -7.6373   -0.7539  -18.7007 C   0  0  0  0  0  0  0  0  0  0  0  0
   -7.1261   -0.0677  -17.6490 N   0  0  0  0  0  0  0  0  0  0  0  0
   -6.1686    0.7876  -17.8950 C   0  0  0  0  0  0  0  0  0  0  0  0
   -5.6578    1.0461  -19.1944 C   0  0  0  0  0  0  0  0  0  0  0  0
   -4.6368    2.0045  -19.4238 C   0  0  0  0  0  0  0  0  0  0  0  0
   -4.1843    2.2460  -20.6924 C   0  0  0  0  0  0  0  0  0  0  0  0
   -4.7356    1.5359  -21.7859 C   0  0  0  0  0  0  0  0  0  0  0  0
   -5.7213    0.6011  -21.5883 C   0  0  0  0  0  0  0  0  0  0  0  0
   -6.2101    0.3230  -20.2850 C   0  0  0  0  0  0  0  0  0  0  0  0
  -11.2007   -1.2242  -22.8185 C   0  0  0  0  0  0  0  0  0  0  0  0
  -12.4176    1.8909  -23.7825 H   0  0  0  0  0  0  0  0  0  0  0  0
  -12.5895    1.0785  -22.2167 H   0  0  0  0  0  0  0  0  0  0  0  0
  -10.9997    1.5807  -22.7555 H   0  0  0  0  0  0  0  0  0  0  0  0
  -12.7730   -0.5142  -24.1683 H   0  0  0  0  0  0  0  0  0  0  0  0
  -10.9044   -0.9379  -25.6183 H   0  0  0  0  0  0  0  0  0  0  0  0
  -10.7037    0.7933  -25.4228 H   0  0  0  0  0  0  0  0  0  0  0  0
   -8.9081    0.5759  -23.9549 H   0  0  0  0  0  0  0  0  0  0  0  0
   -7.0736    0.3353  -25.3512 H   0  0  0  0  0  0  0  0  0  0  0  0
   -5.4911   -1.0888  -26.6047 H   0  0  0  0  0  0  0  0  0  0  0  0
   -5.9636   -3.5076  -26.9087 H   0  0  0  0  0  0  0  0  0  0  0  0
   -8.0382   -4.4852  -25.9509 H   0  0  0  0  0  0  0  0  0  0  0  0
   -9.6091   -3.0616  -24.6983 H   0  0  0  0  0  0  0  0  0  0  0  0
   -8.3673   -2.3115  -20.6693 H   0  0  0  0  0  0  0  0  0  0  0  0
   -7.2665   -1.7210  -21.8866 H   0  0  0  0  0  0  0  0  0  0  0  0
   -8.4422   -1.4427  -18.4411 H   0  0  0  0  0  0  0  0  0  0  0  0
   -5.7583    1.3295  -17.0393 H   0  0  0  0  0  0  0  0  0  0  0  0
   -4.2351    2.5529  -18.5716 H   0  0  0  0  0  0  0  0  0  0  0  0
   -3.4121    2.9914  -20.8699 H   0  0  0  0  0  0  0  0  0  0  0  0
   -4.3742    1.7384  -22.7907 H   0  0  0  0  0  0  0  0  0  0  0  0
   -6.1426    0.0663  -22.4357 H   0  0  0  0  0  0  0  0  0  0  0  0
  -11.6160   -1.1597  -21.8061 H   0  0  0  0  0  0  0  0  0  0  0  0
  -11.4307   -2.2253  -23.2128 H   0  0  0  0  0  0  0  0  0  0  0  0
  1  2  1  0
  2  3  1  0
  3  4  1  0
  4  5  1  0
  5  6  2  0
  6  7  1  0
  7  8  2  0
  8  9  1  0
  9 10  2  0
  4 11  1  0
 11 12  1  0
 12 13  2  0
 12 14  1  0
 14 15  1  0
 15 16  2  0
 16 17  1  0
 17 18  2  0
 18 19  1  0
 19 20  2  0
 20 21  1  0
 21 22  2  0
 22 23  1  0
 23 24  2  0
 11 25  1  0
 25  2  1  0
 10  5  1  0
 24 15  1  0
 24 19  1  0
  1 26  1  0
  1 27  1  0
  1 28  1  0
  2 29  1  6
  3 30  1  0
  3 31  1  0
  4 32  1  1
  6 33  1  0
  7 34  1  0
  8 35  1  0
  9 36  1  0
 10 37  1  0
 14 38  1  0
 14 39  1  0
 16 40  1  0
 18 41  1  0
 20 42  1  0
 21 43  1  0
 22 44  1  0
 23 45  1  0
 25 46  1  0
 25 47  1  0
M  END
$$$$
