mol0_score_25.6656
  PyMOL2.5          3D                             0

 66 71  0  0  1  0  0  0  0  0999 V2000
   -7.6640    3.0640  -22.4750 C   0  0  0  0  0  0  0  0  0  0  0  0
   -8.5440    2.5680  -23.5080 N   0  0  0  0  0  0  0  0  0  0  0  0
   -8.0090    1.9420  -24.5850 C   0  0  0  0  0  0  0  0  0  0  0  0
   -6.8120    1.9400  -24.8340 O   0  0  0  0  0  0  0  0  0  0  0  0
   -9.0430    1.1960  -25.4250 C   0  0  0  0  0  0  0  0  0  0  0  0
   -9.6800    0.1540  -24.6390 N   0  0  0  0  0  0  0  0  0  0  0  0
   -8.8140   -0.9380  -24.2390 C   0  0  0  0  0  0  0  0  0  0  0  0
   -9.2070   -1.5970  -22.8810 C   0  0  2  0  0  0  0  0  0  0  0  0
   -8.6720   -0.7170  -21.7190 C   0  0  0  0  0  0  0  0  0  0  0  0
   -9.2070    0.2760  -21.2570 O   0  0  0  0  0  0  0  0  0  0  0  0
   -7.4610   -1.2320  -21.3090 N   0  0  0  0  0  0  0  0  0  0  0  0
   -6.6950   -0.6810  -20.2470 C   0  0  0  0  0  0  0  0  0  0  0  0
   -7.0000   -0.9610  -18.9390 C   0  0  0  0  0  0  0  0  0  0  0  0
   -6.2660   -0.5420  -17.8790 N   0  0  0  0  0  0  0  0  0  0  0  0
   -5.1940    0.1700  -18.1160 C   0  0  0  0  0  0  0  0  0  0  0  0
   -4.7550    0.5320  -19.4220 C   0  0  0  0  0  0  0  0  0  0  0  0
   -3.5860    1.3090  -19.6490 C   0  0  0  0  0  0  0  0  0  0  0  0
   -3.2080    1.6350  -20.9220 C   0  0  0  0  0  0  0  0  0  0  0  0
   -3.9790    1.2110  -22.0270 C   0  0  0  0  0  0  0  0  0  0  0  0
   -5.1180    0.4670  -21.8330 C   0  0  0  0  0  0  0  0  0  0  0  0
   -5.5290    0.0980  -20.5250 C   0  0  0  0  0  0  0  0  0  0  0  0
   -5.7420    0.2010  -22.6820 H   0  0  0  0  0  0  0  0  0  0  0  0
   -3.6810    1.4820  -23.0350 H   0  0  0  0  0  0  0  0  0  0  0  0
   -2.3170    2.2340  -21.0940 H   0  0  0  0  0  0  0  0  0  0  0  0
   -3.0070    1.6420  -18.7920 H   0  0  0  0  0  0  0  0  0  0  0  0
   -4.6140    0.4990  -17.2520 H   0  0  0  0  0  0  0  0  0  0  0  0
   -7.8720   -1.5660  -18.7030 H   0  0  0  0  0  0  0  0  0  0  0  0
   -7.0730   -2.4560  -21.9910 C   0  0  0  0  0  0  0  0  0  0  0  0
   -8.3900   -2.8960  -22.6530 C   0  0  2  0  0  0  0  0  0  0  0  0
   -8.2380   -3.7990  -23.8860 C   0  0  0  0  0  0  0  0  0  0  0  0
   -7.7780   -5.1300  -23.5670 N   0  0  0  0  0  0  0  0  0  0  0  0
   -6.4840   -5.5350  -23.4680 C   0  0  0  0  0  0  0  0  0  0  0  0
   -5.4140   -4.9410  -24.1680 C   0  0  0  0  0  0  0  0  0  0  0  0
   -4.1810   -5.5480  -24.0280 C   0  0  0  0  0  0  0  0  0  0  0  0
   -3.9740   -6.6040  -23.2340 N   0  0  0  0  0  0  0  0  0  0  0  0
   -5.0480   -7.0670  -22.6130 C   0  0  0  0  0  0  0  0  0  0  0  0
   -6.2930   -6.6150  -22.6890 N   0  0  0  0  0  0  0  0  0  0  0  0
   -4.9000   -7.9390  -21.9750 H   0  0  0  0  0  0  0  0  0  0  0  0
   -3.3090   -5.1890  -24.5770 H   0  0  0  0  0  0  0  0  0  0  0  0
   -5.5490   -4.0800  -24.8140 H   0  0  0  0  0  0  0  0  0  0  0  0
   -8.3930   -5.6650  -22.9750 H   0  0  0  0  0  0  0  0  0  0  0  0
   -7.5540   -3.3450  -24.6090 H   0  0  0  0  0  0  0  0  0  0  0  0
   -9.2150   -3.8800  -24.3830 H   0  0  0  0  0  0  0  0  0  0  0  0
   -8.9290   -3.4680  -21.8940 H   0  0  0  0  0  0  0  0  0  0  0  0
   -6.2740   -2.2840  -22.7310 H   0  0  0  0  0  0  0  0  0  0  0  0
   -6.6890   -3.1850  -21.2690 H   0  0  0  0  0  0  0  0  0  0  0  0
  -10.7200   -1.7530  -22.7920 C   0  0  0  0  0  0  0  0  0  0  0  0
  -11.3380   -2.7120  -21.9680 C   0  0  0  0  0  0  0  0  0  0  0  0
  -12.7150   -2.7390  -21.8260 C   0  0  0  0  0  0  0  0  0  0  0  0
  -13.4530   -3.9240  -20.7810 Cl  0  0  0  0  0  0  0  0  0  0  0  0
  -13.5350   -1.8240  -22.4830 C   0  0  0  0  0  0  0  0  0  0  0  0
  -12.9400   -0.8640  -23.2760 C   0  0  0  0  0  0  0  0  0  0  0  0
  -11.5530   -0.8240  -23.4330 C   0  0  0  0  0  0  0  0  0  0  0  0
  -10.9830    0.2850  -24.2630 C   0  0  0  0  0  0  0  0  0  0  0  0
  -11.6570    1.2700  -24.5620 O   0  0  0  0  0  0  0  0  0  0  0  0
  -13.5370   -0.1060  -23.7750 H   0  0  0  0  0  0  0  0  0  0  0  0
  -14.6110   -1.8660  -22.3450 H   0  0  0  0  0  0  0  0  0  0  0  0
  -10.7670   -3.4370  -21.4000 H   0  0  0  0  0  0  0  0  0  0  0  0
   -7.8030   -0.5230  -24.1530 H   0  0  0  0  0  0  0  0  0  0  0  0
   -8.7920   -1.6800  -25.0470 H   0  0  0  0  0  0  0  0  0  0  0  0
   -9.8370    1.8660  -25.7520 H   0  0  0  0  0  0  0  0  0  0  0  0
   -8.5350    0.7890  -26.3000 H   0  0  0  0  0  0  0  0  0  0  0  0
   -9.4780    2.3090  -23.2290 H   0  0  0  0  0  0  0  0  0  0  0  0
   -7.0870    2.2530  -22.0040 H   0  0  0  0  0  0  0  0  0  0  0  0
   -8.2430    3.5940  -21.7180 H   0  0  0  0  0  0  0  0  0  0  0  0
   -6.9540    3.7730  -22.9050 H   0  0  0  0  0  0  0  0  0  0  0  0
  1  2  1  0  0  0  0
  1 64  1  0  0  0  0
  1 65  1  0  0  0  0
  1 66  1  0  0  0  0
  2  3  1  0  0  0  0
  2 63  1  0  0  0  0
  3  4  2  0  0  0  0
  3  5  1  0  0  0  0
  5  6  1  0  0  0  0
  5 61  1  0  0  0  0
  5 62  1  0  0  0  0
  6  7  1  0  0  0  0
  6 54  1  0  0  0  0
  7  8  1  0  0  0  0
  7 59  1  0  0  0  0
  7 60  1  0  0  0  0
  8  9  1  0  0  0  0
  8 29  1  0  0  0  0
  8 47  1  0  0  0  0
  9 10  2  0  0  0  0
  9 11  1  0  0  0  0
 11 12  1  0  0  0  0
 11 28  1  0  0  0  0
 12 13  2  0  0  0  0
 12 21  1  0  0  0  0
 13 14  1  0  0  0  0
 13 27  1  0  0  0  0
 14 15  2  0  0  0  0
 15 16  1  0  0  0  0
 15 26  1  0  0  0  0
 16 17  1  0  0  0  0
 16 21  2  0  0  0  0
 17 18  2  0  0  0  0
 17 25  1  0  0  0  0
 18 19  1  0  0  0  0
 18 24  1  0  0  0  0
 19 20  2  0  0  0  0
 19 23  1  0  0  0  0
 20 21  1  0  0  0  0
 20 22  1  0  0  0  0
 28 29  1  0  0  0  0
 28 45  1  0  0  0  0
 28 46  1  0  0  0  0
 29 30  1  0  0  0  0
 29 44  1  0  0  0  0
 30 31  1  0  0  0  0
 30 42  1  0  0  0  0
 30 43  1  0  0  0  0
 31 32  1  0  0  0  0
 31 41  1  0  0  0  0
 32 33  2  0  0  0  0
 32 37  1  0  0  0  0
 33 34  1  0  0  0  0
 33 40  1  0  0  0  0
 34 35  2  0  0  0  0
 34 39  1  0  0  0  0
 35 36  1  0  0  0  0
 36 37  2  0  0  0  0
 36 38  1  0  0  0  0
 47 48  1  0  0  0  0
 47 53  2  0  0  0  0
 48 49  2  0  0  0  0
 48 58  1  0  0  0  0
 49 50  1  0  0  0  0
 49 51  1  0  0  0  0
 51 52  2  0  0  0  0
 51 57  1  0  0  0  0
 52 53  1  0  0  0  0
 52 56  1  0  0  0  0
 53 54  1  0  0  0  0
 54 55  2  0  0  0  0
M  END
$$$$
mol1_score_26.1684
  PyMOL2.5          3D                             0

 68 73  0  0  1  0  0  0  0  0999 V2000
   -7.2760    3.4340  -21.8190 C   0  0  0  0  0  0  0  0  0  0  0  0
   -8.2500    2.8930  -22.7540 N   0  0  0  0  0  0  0  0  0  0  0  0
   -7.8270    2.2080  -23.8540 C   0  0  0  0  0  0  0  0  0  0  0  0
   -6.6410    2.0210  -24.1020 O   0  0  0  0  0  0  0  0  0  0  0  0
   -8.9510    1.7040  -24.7730 C   0  0  0  0  0  0  0  0  0  0  0  0
   -9.5480    0.4870  -24.2470 N   0  0  0  0  0  0  0  0  0  0  0  0
   -8.7210   -0.6970  -24.0870 C   0  0  0  0  0  0  0  0  0  0  0  0
   -9.0740   -1.5000  -22.8010 C   0  0  2  0  0  0  0  0  0  0  0  0
   -8.5730   -0.7070  -21.5730 C   0  0  0  0  0  0  0  0  0  0  0  0
   -9.0660    0.2880  -21.0910 O   0  0  0  0  0  0  0  0  0  0  0  0
   -7.4210   -1.2990  -21.1150 N   0  0  0  0  0  0  0  0  0  0  0  0
   -6.6290   -0.7290  -20.1050 C   0  0  0  0  0  0  0  0  0  0  0  0
   -6.9270   -0.9820  -18.7950 C   0  0  0  0  0  0  0  0  0  0  0  0
   -6.1930   -0.5200  -17.7590 N   0  0  0  0  0  0  0  0  0  0  0  0
   -5.1460    0.2160  -18.0390 C   0  0  0  0  0  0  0  0  0  0  0  0
   -4.7270    0.5470  -19.3600 C   0  0  0  0  0  0  0  0  0  0  0  0
   -3.6010    1.3720  -19.6210 C   0  0  0  0  0  0  0  0  0  0  0  0
   -3.2470    1.6800  -20.9070 C   0  0  0  0  0  0  0  0  0  0  0  0
   -3.9970    1.1790  -21.9980 C   0  0  0  0  0  0  0  0  0  0  0  0
   -5.0920    0.3810  -21.7720 C   0  0  0  0  0  0  0  0  0  0  0  0
   -5.4860    0.0510  -20.4430 C   0  0  0  0  0  0  0  0  0  0  0  0
   -5.6850    0.0330  -22.6140 H   0  0  0  0  0  0  0  0  0  0  0  0
   -3.7170    1.4390  -23.0150 H   0  0  0  0  0  0  0  0  0  0  0  0
   -2.3870    2.3140  -21.1010 H   0  0  0  0  0  0  0  0  0  0  0  0
   -3.0470    1.7650  -18.7720 H   0  0  0  0  0  0  0  0  0  0  0  0
   -4.5680    0.5950  -17.1960 H   0  0  0  0  0  0  0  0  0  0  0  0
   -7.7920   -1.5950  -18.5500 H   0  0  0  0  0  0  0  0  0  0  0  0
   -6.9790   -2.4390  -21.8670 C   0  0  0  0  0  0  0  0  0  0  0  0
   -8.2320   -2.8080  -22.6610 C   0  0  2  0  0  0  0  0  0  0  0  0
   -7.8630   -3.5340  -23.9350 C   0  0  0  0  0  0  0  0  0  0  0  0
   -9.0280   -4.1400  -24.5220 N   0  0  0  0  0  0  0  0  0  0  0  0
   -8.8820   -4.7260  -25.7700 C   0  0  0  0  0  0  0  0  0  0  0  0
   -7.7070   -4.8220  -26.5580 C   0  0  0  0  0  0  0  0  0  0  0  0
   -7.9440   -5.4260  -27.7140 N   0  0  0  0  0  0  0  0  0  0  0  0
   -9.2320   -5.7730  -27.6640 N   0  0  0  0  0  0  0  0  0  0  0  0
   -9.8990   -6.1800  -28.8700 C   0  0  0  0  0  0  0  0  0  0  0  0
  -10.5950   -5.3980  -29.1830 H   0  0  0  0  0  0  0  0  0  0  0  0
  -10.4500   -7.1100  -28.7270 H   0  0  0  0  0  0  0  0  0  0  0  0
   -9.1410   -6.3100  -29.6420 H   0  0  0  0  0  0  0  0  0  0  0  0
   -9.8430   -5.3710  -26.5180 C   0  0  0  0  0  0  0  0  0  0  0  0
  -10.8740   -5.6180  -26.3110 H   0  0  0  0  0  0  0  0  0  0  0  0
   -6.7120   -4.4750  -26.3130 H   0  0  0  0  0  0  0  0  0  0  0  0
   -9.9050   -3.6520  -24.3720 H   0  0  0  0  0  0  0  0  0  0  0  0
   -7.3410   -2.8380  -24.6150 H   0  0  0  0  0  0  0  0  0  0  0  0
   -7.1250   -4.3180  -23.7320 H   0  0  0  0  0  0  0  0  0  0  0  0
   -8.8100   -3.5050  -22.0490 H   0  0  0  0  0  0  0  0  0  0  0  0
   -6.1280   -2.1920  -22.5230 H   0  0  0  0  0  0  0  0  0  0  0  0
   -6.6510   -3.2480  -21.2040 H   0  0  0  0  0  0  0  0  0  0  0  0
  -10.5820   -1.6730  -22.7240 C   0  0  0  0  0  0  0  0  0  0  0  0
  -11.1650   -2.6210  -21.8710 C   0  0  0  0  0  0  0  0  0  0  0  0
  -12.5350   -2.6310  -21.6690 C   0  0  0  0  0  0  0  0  0  0  0  0
  -13.1720   -3.6810  -20.4380 Cl  0  0  0  0  0  0  0  0  0  0  0  0
  -13.3840   -1.7590  -22.3510 C   0  0  0  0  0  0  0  0  0  0  0  0
  -12.8190   -0.8430  -23.2130 C   0  0  0  0  0  0  0  0  0  0  0  0
  -11.4360   -0.7540  -23.3540 C   0  0  0  0  0  0  0  0  0  0  0  0
  -10.9060    0.4270  -24.1100 C   0  0  0  0  0  0  0  0  0  0  0  0
  -11.6450    1.3040  -24.5380 O   0  0  0  0  0  0  0  0  0  0  0  0
  -13.4310   -0.1490  -23.7760 H   0  0  0  0  0  0  0  0  0  0  0  0
  -14.4530   -1.7690  -22.1690 H   0  0  0  0  0  0  0  0  0  0  0  0
  -10.5800   -3.3290  -21.2930 H   0  0  0  0  0  0  0  0  0  0  0  0
   -7.6820   -0.3640  -24.0280 H   0  0  0  0  0  0  0  0  0  0  0  0
   -8.8280   -1.3300  -24.9810 H   0  0  0  0  0  0  0  0  0  0  0  0
   -9.7630    2.4350  -24.8360 H   0  0  0  0  0  0  0  0  0  0  0  0
   -8.5580    1.5570  -25.7880 H   0  0  0  0  0  0  0  0  0  0  0  0
   -9.1790    2.7110  -22.3950 H   0  0  0  0  0  0  0  0  0  0  0  0
   -6.6420    4.1690  -22.3200 H   0  0  0  0  0  0  0  0  0  0  0  0
   -7.7930    3.9340  -20.9970 H   0  0  0  0  0  0  0  0  0  0  0  0
   -6.6240    2.6520  -21.4110 H   0  0  0  0  0  0  0  0  0  0  0  0
  1  2  1  0  0  0  0
  1 66  1  0  0  0  0
  1 67  1  0  0  0  0
  1 68  1  0  0  0  0
  2  3  1  0  0  0  0
  2 65  1  0  0  0  0
  3  4  2  0  0  0  0
  3  5  1  0  0  0  0
  5  6  1  0  0  0  0
  5 63  1  0  0  0  0
  5 64  1  0  0  0  0
  6  7  1  0  0  0  0
  6 56  1  0  0  0  0
  7  8  1  0  0  0  0
  7 61  1  0  0  0  0
  7 62  1  0  0  0  0
  8  9  1  0  0  0  0
  8 29  1  0  0  0  0
  8 49  1  0  0  0  0
  9 10  2  0  0  0  0
  9 11  1  0  0  0  0
 11 12  1  0  0  0  0
 11 28  1  0  0  0  0
 12 13  2  0  0  0  0
 12 21  1  0  0  0  0
 13 14  1  0  0  0  0
 13 27  1  0  0  0  0
 14 15  2  0  0  0  0
 15 16  1  0  0  0  0
 15 26  1  0  0  0  0
 16 17  1  0  0  0  0
 16 21  2  0  0  0  0
 17 18  2  0  0  0  0
 17 25  1  0  0  0  0
 18 19  1  0  0  0  0
 18 24  1  0  0  0  0
 19 20  2  0  0  0  0
 19 23  1  0  0  0  0
 20 21  1  0  0  0  0
 20 22  1  0  0  0  0
 28 29  1  0  0  0  0
 28 47  1  0  0  0  0
 28 48  1  0  0  0  0
 29 30  1  0  0  0  0
 29 46  1  0  0  0  0
 30 31  1  0  0  0  0
 30 44  1  0  0  0  0
 30 45  1  0  0  0  0
 31 32  1  0  0  0  0
 31 43  1  0  0  0  0
 32 33  1  0  0  0  0
 32 40  2  0  0  0  0
 33 34  2  0  0  0  0
 33 42  1  0  0  0  0
 34 35  1  0  0  0  0
 35 36  1  0  0  0  0
 35 40  1  0  0  0  0
 36 37  1  0  0  0  0
 36 38  1  0  0  0  0
 36 39  1  0  0  0  0
 40 41  1  0  0  0  0
 49 50  1  0  0  0  0
 49 55  2  0  0  0  0
 50 51  2  0  0  0  0
 50 60  1  0  0  0  0
 51 52  1  0  0  0  0
 51 53  1  0  0  0  0
 53 54  2  0  0  0  0
 53 59  1  0  0  0  0
 54 55  1  0  0  0  0
 54 58  1  0  0  0  0
 55 56  1  0  0  0  0
 56 57  2  0  0  0  0
M  END
$$$$
mol3_score_23.7368
  PyMOL2.5          3D                             0

 66 70  0  0  1  0  0  0  0  0999 V2000
   -7.7400    2.8790  -22.3080 C   0  0  0  0  0  0  0  0  0  0  0  0
   -8.6720    2.3780  -23.2880 N   0  0  0  0  0  0  0  0  0  0  0  0
   -8.2180    1.8470  -24.4460 C   0  0  0  0  0  0  0  0  0  0  0  0
   -7.0410    1.8220  -24.7800 O   0  0  0  0  0  0  0  0  0  0  0  0
   -9.3230    1.1750  -25.2570 C   0  0  0  0  0  0  0  0  0  0  0  0
   -9.8560    0.0550  -24.4960 N   0  0  0  0  0  0  0  0  0  0  0  0
   -8.9160   -1.0040  -24.1710 C   0  0  0  0  0  0  0  0  0  0  0  0
   -9.2090   -1.7370  -22.8260 C   0  0  2  0  0  0  0  0  0  0  0  0
   -8.6910   -0.8740  -21.6380 C   0  0  0  0  0  0  0  0  0  0  0  0
   -9.2630    0.0740  -21.1320 O   0  0  0  0  0  0  0  0  0  0  0  0
   -7.4530   -1.3460  -21.2600 N   0  0  0  0  0  0  0  0  0  0  0  0
   -6.6780   -0.7620  -20.2210 C   0  0  0  0  0  0  0  0  0  0  0  0
   -6.9900   -0.9980  -18.9050 C   0  0  0  0  0  0  0  0  0  0  0  0
   -6.2640   -0.5440  -17.8540 N   0  0  0  0  0  0  0  0  0  0  0  0
   -5.1950    0.1670  -18.1090 C   0  0  0  0  0  0  0  0  0  0  0  0
   -4.7570    0.4970  -19.4230 C   0  0  0  0  0  0  0  0  0  0  0  0
   -3.6020    1.2910  -19.6570 C   0  0  0  0  0  0  0  0  0  0  0  0
   -3.2230    1.6070  -20.9320 C   0  0  0  0  0  0  0  0  0  0  0  0
   -3.9840    1.1550  -22.0310 C   0  0  0  0  0  0  0  0  0  0  0  0
   -5.1070    0.3860  -21.8310 C   0  0  0  0  0  0  0  0  0  0  0  0
   -5.5200    0.0250  -20.5180 C   0  0  0  0  0  0  0  0  0  0  0  0
   -5.7240    0.1200  -22.6840 H   0  0  0  0  0  0  0  0  0  0  0  0
   -3.6960    1.4340  -23.0410 H   0  0  0  0  0  0  0  0  0  0  0  0
   -2.3490    2.2270  -21.1120 H   0  0  0  0  0  0  0  0  0  0  0  0
   -3.0330    1.6490  -18.8030 H   0  0  0  0  0  0  0  0  0  0  0  0
   -4.6160    0.5280  -17.2560 H   0  0  0  0  0  0  0  0  0  0  0  0
   -7.8620   -1.5980  -18.6600 H   0  0  0  0  0  0  0  0  0  0  0  0
   -7.0000   -2.4940  -22.0220 C   0  0  0  0  0  0  0  0  0  0  0  0
   -8.2900   -2.9890  -22.7050 C   0  0  2  0  0  0  0  0  0  0  0  0
   -8.0080   -3.7190  -24.0090 C   0  0  0  0  0  0  0  0  0  0  0  0
   -7.2680   -4.8880  -23.7470 O   0  0  0  0  0  0  0  0  0  0  0  0
   -7.0710   -5.6820  -24.9110 C   0  0  0  0  0  0  0  0  0  0  0  0
   -5.6980   -6.3240  -24.7990 C   0  0  0  0  0  0  0  0  0  0  0  0
   -5.4830   -6.9380  -25.6810 H   0  0  0  0  0  0  0  0  0  0  0  0
   -4.9180   -5.5620  -24.7090 H   0  0  0  0  0  0  0  0  0  0  0  0
   -5.6680   -6.9600  -23.9110 H   0  0  0  0  0  0  0  0  0  0  0  0
   -8.1820   -6.7190  -25.0100 C   0  0  0  0  0  0  0  0  0  0  0  0
   -8.1640   -7.3500  -24.1160 H   0  0  0  0  0  0  0  0  0  0  0  0
   -9.1700   -6.2490  -25.0700 H   0  0  0  0  0  0  0  0  0  0  0  0
   -8.0500   -7.3510  -25.8940 H   0  0  0  0  0  0  0  0  0  0  0  0
   -7.0930   -5.0320  -25.8020 H   0  0  0  0  0  0  0  0  0  0  0  0
   -8.9570   -3.9540  -24.5210 H   0  0  0  0  0  0  0  0  0  0  0  0
   -7.4140   -3.0750  -24.6800 H   0  0  0  0  0  0  0  0  0  0  0  0
   -8.7650   -3.7030  -22.0290 H   0  0  0  0  0  0  0  0  0  0  0  0
   -6.2220   -2.2210  -22.7560 H   0  0  0  0  0  0  0  0  0  0  0  0
   -6.5690   -3.2490  -21.3590 H   0  0  0  0  0  0  0  0  0  0  0  0
  -10.7100   -1.9780  -22.7070 C   0  0  0  0  0  0  0  0  0  0  0  0
  -11.2450   -2.9570  -21.8550 C   0  0  0  0  0  0  0  0  0  0  0  0
  -12.6150   -3.0390  -21.6500 C   0  0  0  0  0  0  0  0  0  0  0  0
  -13.2660   -4.1830  -20.5140 Cl  0  0  0  0  0  0  0  0  0  0  0  0
  -13.5160   -2.2030  -22.3040 C   0  0  0  0  0  0  0  0  0  0  0  0
  -13.0030   -1.2420  -23.1440 C   0  0  0  0  0  0  0  0  0  0  0  0
  -11.6270   -1.1160  -23.3300 C   0  0  0  0  0  0  0  0  0  0  0  0
  -11.1790    0.0320  -24.1780 C   0  0  0  0  0  0  0  0  0  0  0  0
  -11.9570    0.9100  -24.5340 O   0  0  0  0  0  0  0  0  0  0  0  0
  -13.6500   -0.5390  -23.6520 H   0  0  0  0  0  0  0  0  0  0  0  0
  -14.5830   -2.2990  -22.1240 H   0  0  0  0  0  0  0  0  0  0  0  0
  -10.6090   -3.6510  -21.3170 H   0  0  0  0  0  0  0  0  0  0  0  0
   -8.9080   -1.7220  -24.9960 H   0  0  0  0  0  0  0  0  0  0  0  0
   -7.9210   -0.5490  -24.1260 H   0  0  0  0  0  0  0  0  0  0  0  0
   -8.9060    0.8640  -26.2190 H   0  0  0  0  0  0  0  0  0  0  0  0
  -10.1530    1.8620  -25.4290 H   0  0  0  0  0  0  0  0  0  0  0  0
   -9.5790    2.0860  -22.9620 H   0  0  0  0  0  0  0  0  0  0  0  0
   -7.4390    3.9120  -22.5120 H   0  0  0  0  0  0  0  0  0  0  0  0
   -8.2080    2.8370  -21.3280 H   0  0  0  0  0  0  0  0  0  0  0  0
   -6.8540    2.2400  -22.2900 H   0  0  0  0  0  0  0  0  0  0  0  0
  1  2  1  0  0  0  0
  1 64  1  0  0  0  0
  1 65  1  0  0  0  0
  1 66  1  0  0  0  0
  2  3  1  0  0  0  0
  2 63  1  0  0  0  0
  3  4  2  0  0  0  0
  3  5  1  0  0  0  0
  5  6  1  0  0  0  0
  5 61  1  0  0  0  0
  5 62  1  0  0  0  0
  6  7  1  0  0  0  0
  6 54  1  0  0  0  0
  7  8  1  0  0  0  0
  7 59  1  0  0  0  0
  7 60  1  0  0  0  0
  8  9  1  0  0  0  0
  8 29  1  0  0  0  0
  8 47  1  0  0  0  0
  9 10  2  0  0  0  0
  9 11  1  0  0  0  0
 11 12  1  0  0  0  0
 11 28  1  0  0  0  0
 12 13  2  0  0  0  0
 12 21  1  0  0  0  0
 13 14  1  0  0  0  0
 13 27  1  0  0  0  0
 14 15  2  0  0  0  0
 15 16  1  0  0  0  0
 15 26  1  0  0  0  0
 16 17  1  0  0  0  0
 16 21  2  0  0  0  0
 17 18  2  0  0  0  0
 17 25  1  0  0  0  0
 18 19  1  0  0  0  0
 18 24  1  0  0  0  0
 19 20  2  0  0  0  0
 19 23  1  0  0  0  0
 20 21  1  0  0  0  0
 20 22  1  0  0  0  0
 28 29  1  0  0  0  0
 28 45  1  0  0  0  0
 28 46  1  0  0  0  0
 29 30  1  0  0  0  0
 29 44  1  0  0  0  0
 30 31  1  0  0  0  0
 30 42  1  0  0  0  0
 30 43  1  0  0  0  0
 31 32  1  0  0  0  0
 32 33  1  0  0  0  0
 32 37  1  0  0  0  0
 32 41  1  0  0  0  0
 33 34  1  0  0  0  0
 33 35  1  0  0  0  0
 33 36  1  0  0  0  0
 37 38  1  0  0  0  0
 37 39  1  0  0  0  0
 37 40  1  0  0  0  0
 47 48  1  0  0  0  0
 47 53  2  0  0  0  0
 48 49  2  0  0  0  0
 48 58  1  0  0  0  0
 49 50  1  0  0  0  0
 49 51  1  0  0  0  0
 51 52  2  0  0  0  0
 51 57  1  0  0  0  0
 52 53  1  0  0  0  0
 52 56  1  0  0  0  0
 53 54  1  0  0  0  0
 54 55  2  0  0  0  0
M  END
$$$$
mol4_score_22.2282
  PyMOL2.5          3D                             0

 59 64  0  0  1  0  0  0  0  0999 V2000
   -8.2660   -4.1090  -23.5380 C   0  0  0  0  0  0  0  0  0  0  0  0
   -8.5200   -2.9670  -22.5570 C   0  0  1  0  0  0  0  0  0  0  0  0
   -7.3960   -2.7990  -21.5200 C   0  0  0  0  0  0  0  0  0  0  0  0
   -7.4210   -1.3820  -21.2020 N   0  0  0  0  0  0  0  0  0  0  0  0
   -6.6130   -0.8020  -20.1850 C   0  0  0  0  0  0  0  0  0  0  0  0
   -6.8980   -1.0520  -18.8680 C   0  0  0  0  0  0  0  0  0  0  0  0
   -6.2040   -0.5510  -17.8150 N   0  0  0  0  0  0  0  0  0  0  0  0
   -5.1710    0.2120  -18.0830 C   0  0  0  0  0  0  0  0  0  0  0  0
   -4.7340    0.5260  -19.4000 C   0  0  0  0  0  0  0  0  0  0  0  0
   -3.5960    1.3470  -19.6350 C   0  0  0  0  0  0  0  0  0  0  0  0
   -3.1840    1.6160  -20.9100 C   0  0  0  0  0  0  0  0  0  0  0  0
   -3.8840    1.0650  -22.0090 C   0  0  0  0  0  0  0  0  0  0  0  0
   -4.9840    0.2710  -21.8060 C   0  0  0  0  0  0  0  0  0  0  0  0
   -5.4590   -0.0030  -20.4930 C   0  0  0  0  0  0  0  0  0  0  0  0
   -5.5150   -0.1430  -22.6570 H   0  0  0  0  0  0  0  0  0  0  0  0
   -3.5570    1.2880  -23.0200 H   0  0  0  0  0  0  0  0  0  0  0  0
   -2.3260    2.2590  -21.0880 H   0  0  0  0  0  0  0  0  0  0  0  0
   -3.0770    1.7670  -18.7760 H   0  0  0  0  0  0  0  0  0  0  0  0
   -4.6240    0.6180  -17.2320 H   0  0  0  0  0  0  0  0  0  0  0  0
   -7.7450   -1.6850  -18.6060 H   0  0  0  0  0  0  0  0  0  0  0  0
   -8.1380   -0.6220  -22.1020 C   0  0  0  0  0  0  0  0  0  0  0  0
   -8.2340    0.5880  -22.0370 O   0  0  0  0  0  0  0  0  0  0  0  0
   -8.7380   -1.5450  -23.1880 C   0  0  1  0  0  0  0  0  0  0  0  0
   -7.9710   -1.2650  -24.5010 C   0  0  0  0  0  0  0  0  0  0  0  0
   -8.6070   -1.8230  -25.6950 N   0  0  0  0  0  0  0  0  0  0  0  0
   -7.7350   -2.0660  -26.8410 C   0  0  0  0  0  0  0  0  0  0  0  0
   -6.9390   -3.3380  -26.7150 C   0  0  0  0  0  0  0  0  0  0  0  0
   -5.7050   -3.3970  -26.2590 N   0  0  0  0  0  0  0  0  0  0  0  0
   -5.3730   -4.7300  -26.2690 C   0  0  0  0  0  0  0  0  0  0  0  0
   -6.4280   -5.4770  -26.7180 C   0  0  0  0  0  0  0  0  0  0  0  0
   -7.4290   -4.5740  -27.0210 N   0  0  0  0  0  0  0  0  0  0  0  0
   -8.7690   -4.8940  -27.4780 C   0  0  0  0  0  0  0  0  0  0  0  0
   -9.0380   -4.2890  -28.3500 H   0  0  0  0  0  0  0  0  0  0  0  0
   -9.5100   -4.7210  -26.6900 H   0  0  0  0  0  0  0  0  0  0  0  0
   -8.7830   -5.9510  -27.7540 H   0  0  0  0  0  0  0  0  0  0  0  0
   -6.5820   -6.5400  -26.8220 H   0  0  0  0  0  0  0  0  0  0  0  0
   -4.3960   -5.0600  -25.9380 H   0  0  0  0  0  0  0  0  0  0  0  0
   -8.3690   -2.0540  -27.7310 H   0  0  0  0  0  0  0  0  0  0  0  0
   -7.0130   -1.2450  -26.9120 H   0  0  0  0  0  0  0  0  0  0  0  0
   -9.9620   -1.8010  -25.8880 C   0  0  0  0  0  0  0  0  0  0  0  0
  -10.4890   -2.1140  -26.9510 O   0  0  0  0  0  0  0  0  0  0  0  0
  -10.7810   -1.4000  -24.7070 C   0  0  0  0  0  0  0  0  0  0  0  0
  -12.1530   -1.2160  -24.8960 C   0  0  0  0  0  0  0  0  0  0  0  0
  -12.9650   -0.9090  -23.8290 C   0  0  0  0  0  0  0  0  0  0  0  0
  -12.3900   -0.7840  -22.5770 C   0  0  0  0  0  0  0  0  0  0  0  0
  -13.2260   -0.4760  -21.5840 F   0  0  0  0  0  0  0  0  0  0  0  0
  -11.0400   -0.9700  -22.3510 C   0  0  0  0  0  0  0  0  0  0  0  0
  -10.2090   -1.2650  -23.4370 C   0  0  0  0  0  0  0  0  0  0  0  0
  -10.6190   -0.8880  -21.3560 H   0  0  0  0  0  0  0  0  0  0  0  0
  -14.0380   -0.7750  -23.9000 H   0  0  0  0  0  0  0  0  0  0  0  0
  -12.5690   -1.3600  -25.8870 H   0  0  0  0  0  0  0  0  0  0  0  0
   -6.9650   -1.6980  -24.4570 H   0  0  0  0  0  0  0  0  0  0  0  0
   -7.8810   -0.1710  -24.5840 H   0  0  0  0  0  0  0  0  0  0  0  0
   -6.4210   -3.0990  -21.9350 H   0  0  0  0  0  0  0  0  0  0  0  0
   -7.5680   -3.3990  -20.6200 H   0  0  0  0  0  0  0  0  0  0  0  0
   -9.4480   -3.1750  -22.0040 H   0  0  0  0  0  0  0  0  0  0  0  0
   -7.3120   -3.9740  -24.0590 H   0  0  0  0  0  0  0  0  0  0  0  0
   -8.2320   -5.0700  -23.0130 H   0  0  0  0  0  0  0  0  0  0  0  0
   -9.0610   -4.1600  -24.2880 H   0  0  0  0  0  0  0  0  0  0  0  0
  1  2  1  0  0  0  0
  1 57  1  0  0  0  0
  1 58  1  0  0  0  0
  1 59  1  0  0  0  0
  2  3  1  0  0  0  0
  2 23  1  0  0  0  0
  2 56  1  0  0  0  0
  3  4  1  0  0  0  0
  3 54  1  0  0  0  0
  3 55  1  0  0  0  0
  4  5  1  0  0  0  0
  4 21  1  0  0  0  0
  5  6  2  0  0  0  0
  5 14  1  0  0  0  0
  6  7  1  0  0  0  0
  6 20  1  0  0  0  0
  7  8  2  0  0  0  0
  8  9  1  0  0  0  0
  8 19  1  0  0  0  0
  9 10  1  0  0  0  0
  9 14  2  0  0  0  0
 10 11  2  0  0  0  0
 10 18  1  0  0  0  0
 11 12  1  0  0  0  0
 11 17  1  0  0  0  0
 12 13  2  0  0  0  0
 12 16  1  0  0  0  0
 13 14  1  0  0  0  0
 13 15  1  0  0  0  0
 21 22  2  0  0  0  0
 21 23  1  0  0  0  0
 23 24  1  0  0  0  0
 23 48  1  0  0  0  0
 24 25  1  0  0  0  0
 24 52  1  0  0  0  0
 24 53  1  0  0  0  0
 25 26  1  0  0  0  0
 25 40  1  0  0  0  0
 26 27  1  0  0  0  0
 26 38  1  0  0  0  0
 26 39  1  0  0  0  0
 27 28  2  0  0  0  0
 27 31  1  0  0  0  0
 28 29  1  0  0  0  0
 29 30  2  0  0  0  0
 29 37  1  0  0  0  0
 30 31  1  0  0  0  0
 30 36  1  0  0  0  0
 31 32  1  0  0  0  0
 32 33  1  0  0  0  0
 32 34  1  0  0  0  0
 32 35  1  0  0  0  0
 40 41  2  0  0  0  0
 40 42  1  0  0  0  0
 42 43  2  0  0  0  0
 42 48  1  0  0  0  0
 43 44  1  0  0  0  0
 43 51  1  0  0  0  0
 44 45  2  0  0  0  0
 44 50  1  0  0  0  0
 45 46  1  0  0  0  0
 45 47  1  0  0  0  0
 47 48  2  0  0  0  0
 47 49  1  0  0  0  0
M  END
$$$$
mol5_score_23.5931
  PyMOL2.5          3D                             0

 58 61  0  0  1  0  0  0  0  0999 V2000
   -7.9930   -4.6330  -21.9570 C   0  0  0  0  0  0  0  0  0  0  0  0
   -6.9710   -3.8240  -21.6790 C   0  0  0  0  0  0  0  0  0  0  0  0
   -6.7050   -2.4110  -22.0880 C   0  0  0  0  0  0  0  0  0  0  0  0
   -7.3610   -1.3990  -21.2540 N   0  0  0  0  0  0  0  0  0  0  0  0
   -8.5910   -0.7940  -21.4890 C   0  0  0  0  0  0  0  0  0  0  0  0
   -9.0340    0.0140  -20.7020 O   0  0  0  0  0  0  0  0  0  0  0  0
   -9.3140   -1.1040  -22.8010 C   0  0  2  0  0  0  0  0  0  0  0  0
   -8.7240   -0.2250  -23.9170 C   0  0  0  0  0  0  0  0  0  0  0  0
   -9.0680    1.1650  -23.6620 N   0  0  0  0  0  0  0  0  0  0  0  0
   -8.0290    2.1750  -23.7130 C   0  0  0  0  0  0  0  0  0  0  0  0
   -7.5100    2.3200  -25.1420 C   0  0  0  0  0  0  0  0  0  0  0  0
   -6.4760    1.7990  -25.5270 O   0  0  0  0  0  0  0  0  0  0  0  0
   -8.3370    3.0190  -25.9610 N   0  0  0  0  0  0  0  0  0  0  0  0
   -7.9630    3.2060  -27.3480 C   0  0  0  0  0  0  0  0  0  0  0  0
   -7.0100    3.7420  -27.4130 H   0  0  0  0  0  0  0  0  0  0  0  0
   -7.8330    2.2410  -27.8530 H   0  0  0  0  0  0  0  0  0  0  0  0
   -8.7400    3.7820  -27.8560 H   0  0  0  0  0  0  0  0  0  0  0  0
   -9.2400    3.3220  -25.6200 H   0  0  0  0  0  0  0  0  0  0  0  0
   -7.2020    1.8890  -23.0510 H   0  0  0  0  0  0  0  0  0  0  0  0
   -8.4720    3.1110  -23.3560 H   0  0  0  0  0  0  0  0  0  0  0  0
  -10.3660    1.5530  -23.4920 C   0  0  0  0  0  0  0  0  0  0  0  0
  -10.7440    2.6990  -23.7160 O   0  0  0  0  0  0  0  0  0  0  0  0
  -11.2820    0.4750  -23.0060 C   0  0  0  0  0  0  0  0  0  0  0  0
  -12.6390    0.7670  -22.8820 C   0  0  0  0  0  0  0  0  0  0  0  0
  -13.5280   -0.2100  -22.4740 C   0  0  0  0  0  0  0  0  0  0  0  0
  -13.0370   -1.4740  -22.1490 C   0  0  0  0  0  0  0  0  0  0  0  0
  -14.1510   -2.6960  -21.6090 Cl  0  0  0  0  0  0  0  0  0  0  0  0
  -11.6830   -1.7650  -22.2400 C   0  0  0  0  0  0  0  0  0  0  0  0
  -10.7890   -0.7910  -22.6870 C   0  0  0  0  0  0  0  0  0  0  0  0
  -11.3260   -2.7530  -21.9620 H   0  0  0  0  0  0  0  0  0  0  0  0
  -14.5880    0.0050  -22.3880 H   0  0  0  0  0  0  0  0  0  0  0  0
  -12.9700    1.7750  -23.1120 H   0  0  0  0  0  0  0  0  0  0  0  0
   -9.1200   -0.5550  -24.8870 H   0  0  0  0  0  0  0  0  0  0  0  0
   -7.6330   -0.2870  -23.9700 H   0  0  0  0  0  0  0  0  0  0  0  0
   -9.1860   -2.1640  -23.0330 H   0  0  0  0  0  0  0  0  0  0  0  0
   -6.6030   -0.8270  -20.1990 C   0  0  0  0  0  0  0  0  0  0  0  0
   -6.9430   -1.0500  -18.8910 C   0  0  0  0  0  0  0  0  0  0  0  0
   -6.2410   -0.5660  -17.8420 N   0  0  0  0  0  0  0  0  0  0  0  0
   -5.1820    0.1630  -18.0980 C   0  0  0  0  0  0  0  0  0  0  0  0
   -4.7370    0.4880  -19.4110 C   0  0  0  0  0  0  0  0  0  0  0  0
   -3.6040    1.3110  -19.6440 C   0  0  0  0  0  0  0  0  0  0  0  0
   -3.2180    1.6220  -20.9190 C   0  0  0  0  0  0  0  0  0  0  0  0
   -3.9460    1.1310  -22.0240 C   0  0  0  0  0  0  0  0  0  0  0  0
   -5.0540    0.3430  -21.8230 C   0  0  0  0  0  0  0  0  0  0  0  0
   -5.4660   -0.0150  -20.5050 C   0  0  0  0  0  0  0  0  0  0  0  0
   -5.6170   -0.0000  -22.6850 H   0  0  0  0  0  0  0  0  0  0  0  0
   -3.6400    1.3830  -23.0350 H   0  0  0  0  0  0  0  0  0  0  0  0
   -2.3600    2.2660  -21.0900 H   0  0  0  0  0  0  0  0  0  0  0  0
   -3.0710    1.6980  -18.7830 H   0  0  0  0  0  0  0  0  0  0  0  0
   -4.6260    0.5510  -17.2440 H   0  0  0  0  0  0  0  0  0  0  0  0
   -7.8320   -1.6310  -18.6440 H   0  0  0  0  0  0  0  0  0  0  0  0
   -6.8830   -2.2210  -23.1560 H   0  0  0  0  0  0  0  0  0  0  0  0
   -5.6410   -2.4000  -21.8050 H   0  0  0  0  0  0  0  0  0  0  0  0
   -5.7490   -4.2680  -20.8560 C   0  0  0  0  0  0  0  0  0  0  0  0
   -4.8930   -3.3670  -20.6810 O   0  0  0  0  0  0  0  0  0  0  0  0
   -5.6620   -5.4470  -20.4880 O   0  5  0  0  0  0  0  0  0  0  0  0
   -8.8250   -4.2840  -22.5670 H   0  0  0  0  0  0  0  0  0  0  0  0
   -8.0750   -5.6510  -21.5820 H   0  0  0  0  0  0  0  0  0  0  0  0
  1  2  2  0  0  0  0
  1 57  1  0  0  0  0
  1 58  1  0  0  0  0
  2  3  1  0  0  0  0
  2 54  1  0  0  0  0
  3  4  1  0  0  0  0
  3 52  1  0  0  0  0
  3 53  1  0  0  0  0
  4  5  1  0  0  0  0
  4 36  1  0  0  0  0
  5  6  2  0  0  0  0
  5  7  1  0  0  0  0
  7  8  1  0  0  0  0
  7 29  1  0  0  0  0
  7 35  1  0  0  0  0
  8  9  1  0  0  0  0
  8 33  1  0  0  0  0
  8 34  1  0  0  0  0
  9 10  1  0  0  0  0
  9 21  1  0  0  0  0
 10 11  1  0  0  0  0
 10 19  1  0  0  0  0
 10 20  1  0  0  0  0
 11 12  2  0  0  0  0
 11 13  1  0  0  0  0
 13 14  1  0  0  0  0
 13 18  1  0  0  0  0
 14 15  1  0  0  0  0
 14 16  1  0  0  0  0
 14 17  1  0  0  0  0
 21 22  2  0  0  0  0
 21 23  1  0  0  0  0
 23 24  2  0  0  0  0
 23 29  1  0  0  0  0
 24 25  1  0  0  0  0
 24 32  1  0  0  0  0
 25 26  2  0  0  0  0
 25 31  1  0  0  0  0
 26 27  1  0  0  0  0
 26 28  1  0  0  0  0
 28 29  2  0  0  0  0
 28 30  1  0  0  0  0
 36 37  2  0  0  0  0
 36 45  1  0  0  0  0
 37 38  1  0  0  0  0
 37 51  1  0  0  0  0
 38 39  2  0  0  0  0
 39 40  1  0  0  0  0
 39 50  1  0  0  0  0
 40 41  1  0  0  0  0
 40 45  2  0  0  0  0
 41 42  2  0  0  0  0
 41 49  1  0  0  0  0
 42 43  1  0  0  0  0
 42 48  1  0  0  0  0
 43 44  2  0  0  0  0
 43 47  1  0  0  0  0
 44 45  1  0  0  0  0
 44 46  1  0  0  0  0
 54 55  2  0  0  0  0
 54 56  1  0  0  0  0
M  END
$$$$
mol6_score_18.4289
  PyMOL2.5          3D                             0

 43 45  0  0  0  0  0  0  0  0999 V2000
  -14.7830   -2.2180  -23.0420 C   0  0  0  0  0  0  0  0  0  0  0  0
  -13.4490   -2.9050  -22.6960 C   0  0  0  0  0  0  0  0  0  0  0  0
  -12.1800   -2.2060  -23.2130 C   0  0  0  0  0  0  0  0  0  0  0  0
  -10.9130   -3.0370  -22.9420 C   0  0  0  0  0  0  0  0  0  0  0  0
   -9.6090   -2.2640  -23.2140 C   0  0  0  0  0  0  0  0  0  0  0  0
   -9.5910   -0.9670  -22.5230 N   0  0  0  0  0  0  0  0  0  0  0  0
   -8.6060   -0.4520  -21.7160 C   0  0  0  0  0  0  0  0  0  0  0  0
   -8.6010    0.7080  -21.3470 O   0  0  0  0  0  0  0  0  0  0  0  0
   -7.4980   -1.4250  -21.2800 C   0  0  0  0  0  0  0  0  0  0  0  0
   -6.6120   -0.8430  -20.2140 C   0  0  0  0  0  0  0  0  0  0  0  0
   -6.9160   -1.0640  -18.8960 C   0  0  0  0  0  0  0  0  0  0  0  0
   -6.2300   -0.5680  -17.8340 N   0  0  0  0  0  0  0  0  0  0  0  0
   -5.1960    0.1900  -18.0940 C   0  0  0  0  0  0  0  0  0  0  0  0
   -4.7570    0.5080  -19.4080 C   0  0  0  0  0  0  0  0  0  0  0  0
   -3.6260    1.3320  -19.6380 C   0  0  0  0  0  0  0  0  0  0  0  0
   -3.2420    1.6350  -20.9150 C   0  0  0  0  0  0  0  0  0  0  0  0
   -3.9780    1.1390  -22.0130 C   0  0  0  0  0  0  0  0  0  0  0  0
   -5.0770    0.3400  -21.8170 C   0  0  0  0  0  0  0  0  0  0  0  0
   -5.4920   -0.0100  -20.5030 C   0  0  0  0  0  0  0  0  0  0  0  0
   -5.6370   -0.0270  -22.6710 H   0  0  0  0  0  0  0  0  0  0  0  0
   -3.6650    1.3990  -23.0210 H   0  0  0  0  0  0  0  0  0  0  0  0
   -2.3820    2.2760  -21.0880 H   0  0  0  0  0  0  0  0  0  0  0  0
   -3.0830    1.7240  -18.7800 H   0  0  0  0  0  0  0  0  0  0  0  0
   -4.6440    0.5930  -17.2410 H   0  0  0  0  0  0  0  0  0  0  0  0
   -7.7770   -1.6810  -18.6430 H   0  0  0  0  0  0  0  0  0  0  0  0
   -7.9810   -2.3260  -20.8810 H   0  0  0  0  0  0  0  0  0  0  0  0
   -6.9080   -1.7320  -22.1530 H   0  0  0  0  0  0  0  0  0  0  0  0
  -10.7580   -0.1360  -22.8190 C   0  0  0  0  0  0  0  0  0  0  0  0
  -12.0080   -0.9130  -22.4410 C   0  0  0  0  0  0  0  0  0  0  0  0
  -11.9160   -1.2800  -21.4140 H   0  0  0  0  0  0  0  0  0  0  0  0
  -12.8920   -0.2710  -22.4740 H   0  0  0  0  0  0  0  0  0  0  0  0
  -10.6930    0.8070  -22.2670 H   0  0  0  0  0  0  0  0  0  0  0  0
  -10.7640    0.1010  -23.8950 H   0  0  0  0  0  0  0  0  0  0  0  0
   -8.7590   -2.8900  -22.9200 H   0  0  0  0  0  0  0  0  0  0  0  0
   -9.5050   -2.0750  -24.2950 H   0  0  0  0  0  0  0  0  0  0  0  0
  -10.9220   -3.3210  -21.8780 H   0  0  0  0  0  0  0  0  0  0  0  0
  -10.9240   -3.9660  -23.5270 H   0  0  0  0  0  0  0  0  0  0  0  0
  -12.2730   -1.9730  -24.2830 H   0  0  0  0  0  0  0  0  0  0  0  0
  -13.4590   -3.9540  -23.0070 H   0  0  0  0  0  0  0  0  0  0  0  0
  -13.3580   -2.9370  -21.6020 H   0  0  0  0  0  0  0  0  0  0  0  0
  -14.7910   -1.7760  -24.0480 H   0  0  0  0  0  0  0  0  0  0  0  0
  -15.0150   -1.4190  -22.3230 H   0  0  0  0  0  0  0  0  0  0  0  0
  -15.5890   -2.9570  -23.0040 H   0  0  0  0  0  0  0  0  0  0  0  0
  1  2  1  0  0  0  0
  1 41  1  0  0  0  0
  1 42  1  0  0  0  0
  1 43  1  0  0  0  0
  2  3  1  0  0  0  0
  2 39  1  0  0  0  0
  2 40  1  0  0  0  0
  3  4  1  0  0  0  0
  3 29  1  0  0  0  0
  3 38  1  0  0  0  0
  4  5  1  0  0  0  0
  4 36  1  0  0  0  0
  4 37  1  0  0  0  0
  5  6  1  0  0  0  0
  5 34  1  0  0  0  0
  5 35  1  0  0  0  0
  6  7  1  0  0  0  0
  6 28  1  0  0  0  0
  7  8  2  0  0  0  0
  7  9  1  0  0  0  0
  9 10  1  0  0  0  0
  9 26  1  0  0  0  0
  9 27  1  0  0  0  0
 10 11  2  0  0  0  0
 10 19  1  0  0  0  0
 11 12  1  0  0  0  0
 11 25  1  0  0  0  0
 12 13  2  0  0  0  0
 13 14  1  0  0  0  0
 13 24  1  0  0  0  0
 14 15  1  0  0  0  0
 14 19  2  0  0  0  0
 15 16  2  0  0  0  0
 15 23  1  0  0  0  0
 16 17  1  0  0  0  0
 16 22  1  0  0  0  0
 17 18  2  0  0  0  0
 17 21  1  0  0  0  0
 18 19  1  0  0  0  0
 18 20  1  0  0  0  0
 28 29  1  0  0  0  0
 28 32  1  0  0  0  0
 28 33  1  0  0  0  0
 29 30  1  0  0  0  0
 29 31  1  0  0  0  0
M  END
$$$$
mol7_score_18.2852
  PyMOL2.5          3D                             0

 44 47  0  0  0  0  0  0  0  0999 V2000
  -10.0920   -5.9990  -27.5800 C   0  0  0  0  0  0  0  0  0  0  0  0
   -8.9750   -5.2880  -26.8090 C   0  0  0  0  0  0  0  0  0  0  0  0
   -9.2130   -5.5150  -25.0540 S   0  0  0  0  0  0  0  0  0  0  0  0
   -9.0100   -6.9200  -24.7520 O   0  0  0  0  0  0  0  0  0  0  0  0
  -10.4610   -4.8440  -24.7090 O   0  0  0  0  0  0  0  0  0  0  0  0
   -7.9490   -4.6910  -24.2770 N   0  0  0  0  0  0  0  0  0  0  0  0
   -7.9910   -3.2070  -24.3170 C   0  0  0  0  0  0  0  0  0  0  0  0
   -8.0640   -3.1460  -22.7700 C   0  0  0  0  0  0  0  0  0  0  0  0
   -8.0630   -4.6840  -22.7760 C   0  0  0  0  0  0  0  0  0  0  0  0
   -7.1830   -5.1270  -22.3080 H   0  0  0  0  0  0  0  0  0  0  0  0
   -8.9720   -5.1340  -22.3700 H   0  0  0  0  0  0  0  0  0  0  0  0
   -6.8680   -2.5250  -22.0680 C   0  0  0  0  0  0  0  0  0  0  0  0
   -5.7080   -2.8150  -22.2230 O   0  0  0  0  0  0  0  0  0  0  0  0
   -7.3670   -1.5340  -21.2170 N   0  0  0  0  0  0  0  0  0  0  0  0
   -6.6000   -0.8670  -20.2050 C   0  0  0  0  0  0  0  0  0  0  0  0
   -6.9140   -1.0660  -18.8820 C   0  0  0  0  0  0  0  0  0  0  0  0
   -6.2150   -0.5570  -17.8360 N   0  0  0  0  0  0  0  0  0  0  0  0
   -5.1820    0.2030  -18.1020 C   0  0  0  0  0  0  0  0  0  0  0  0
   -4.7490    0.5170  -19.4180 C   0  0  0  0  0  0  0  0  0  0  0  0
   -3.6160    1.3480  -19.6420 C   0  0  0  0  0  0  0  0  0  0  0  0
   -3.2250    1.6570  -20.9150 C   0  0  0  0  0  0  0  0  0  0  0  0
   -3.9550    1.1460  -22.0100 C   0  0  0  0  0  0  0  0  0  0  0  0
   -5.0510    0.3390  -21.8180 C   0  0  0  0  0  0  0  0  0  0  0  0
   -5.4780   -0.0170  -20.5090 C   0  0  0  0  0  0  0  0  0  0  0  0
   -5.5980   -0.0450  -22.6720 H   0  0  0  0  0  0  0  0  0  0  0  0
   -3.6470    1.3990  -23.0190 H   0  0  0  0  0  0  0  0  0  0  0  0
   -2.3680    2.3040  -21.0880 H   0  0  0  0  0  0  0  0  0  0  0  0
   -3.0860    1.7470  -18.7800 H   0  0  0  0  0  0  0  0  0  0  0  0
   -4.6320    0.6080  -17.2510 H   0  0  0  0  0  0  0  0  0  0  0  0
   -7.7620   -1.6860  -18.6060 H   0  0  0  0  0  0  0  0  0  0  0  0
   -8.7610   -1.3840  -21.4060 C   0  0  0  0  0  0  0  0  0  0  0  0
   -9.4380   -0.4620  -21.0100 O   0  0  0  0  0  0  0  0  0  0  0  0
   -9.1720   -2.4480  -22.1720 N   0  0  0  0  0  0  0  0  0  0  0  0
  -10.5620   -2.6990  -22.4970 C   0  0  0  0  0  0  0  0  0  0  0  0
  -10.7630   -2.4920  -23.5550 H   0  0  0  0  0  0  0  0  0  0  0  0
  -10.8350   -3.7410  -22.2840 H   0  0  0  0  0  0  0  0  0  0  0  0
  -11.1490   -2.0260  -21.8710 H   0  0  0  0  0  0  0  0  0  0  0  0
   -7.0640   -2.8160  -24.7350 H   0  0  0  0  0  0  0  0  0  0  0  0
   -8.8530   -2.7790  -24.8410 H   0  0  0  0  0  0  0  0  0  0  0  0
   -8.9750   -4.2050  -26.9830 H   0  0  0  0  0  0  0  0  0  0  0  0
   -7.9850   -5.6970  -27.0330 H   0  0  0  0  0  0  0  0  0  0  0  0
  -11.0770   -5.6120  -27.3060 H   0  0  0  0  0  0  0  0  0  0  0  0
   -9.9520   -5.8550  -28.6550 H   0  0  0  0  0  0  0  0  0  0  0  0
  -10.0900   -7.0730  -27.3660 H   0  0  0  0  0  0  0  0  0  0  0  0
  1  2  1  0  0  0  0
  1 42  1  0  0  0  0
  1 43  1  0  0  0  0
  1 44  1  0  0  0  0
  2  3  1  0  0  0  0
  2 40  1  0  0  0  0
  2 41  1  0  0  0  0
  3  4  2  0  0  0  0
  3  5  2  0  0  0  0
  3  6  1  0  0  0  0
  6  7  1  0  0  0  0
  6  9  1  0  0  0  0
  7  8  1  0  0  0  0
  7 38  1  0  0  0  0
  7 39  1  0  0  0  0
  8  9  1  0  0  0  0
  8 12  1  0  0  0  0
  8 33  1  0  0  0  0
  9 10  1  0  0  0  0
  9 11  1  0  0  0  0
 12 13  2  0  0  0  0
 12 14  1  0  0  0  0
 14 15  1  0  0  0  0
 14 31  1  0  0  0  0
 15 16  2  0  0  0  0
 15 24  1  0  0  0  0
 16 17  1  0  0  0  0
 16 30  1  0  0  0  0
 17 18  2  0  0  0  0
 18 19  1  0  0  0  0
 18 29  1  0  0  0  0
 19 20  1  0  0  0  0
 19 24  2  0  0  0  0
 20 21  2  0  0  0  0
 20 28  1  0  0  0  0
 21 22  1  0  0  0  0
 21 27  1  0  0  0  0
 22 23  2  0  0  0  0
 22 26  1  0  0  0  0
 23 24  1  0  0  0  0
 23 25  1  0  0  0  0
 31 32  2  0  0  0  0
 31 33  1  0  0  0  0
 33 34  1  0  0  0  0
 34 35  1  0  0  0  0
 34 36  1  0  0  0  0
 34 37  1  0  0  0  0
M  END
$$$$
mol9_score_18.0066
  PyMOL2.5          3D                             0

 41 43  0  0  1  0  0  0  0  0999 V2000
  -13.1790   -2.9270  -22.9030 C   0  0  0  0  0  0  0  0  0  0  0  0
  -11.9700   -2.0470  -23.2130 C   0  0  1  0  0  0  0  0  0  0  0  0
  -12.1570   -0.6580  -22.6430 C   0  0  0  0  0  0  0  0  0  0  0  0
  -11.3190    0.3570  -22.8350 C   0  0  0  0  0  0  0  0  0  0  0  0
  -10.0220    0.2180  -23.6030 C   0  0  0  0  0  0  0  0  0  0  0  0
   -9.0910   -0.7830  -23.0600 N   0  0  0  0  0  0  0  0  0  0  0  0
   -8.3780   -0.4050  -21.9320 C   0  0  0  0  0  0  0  0  0  0  0  0
   -8.4820    0.7170  -21.4720 O   0  0  0  0  0  0  0  0  0  0  0  0
   -7.4310   -1.4330  -21.2740 C   0  0  0  0  0  0  0  0  0  0  0  0
   -6.5800   -0.8280  -20.1820 C   0  0  0  0  0  0  0  0  0  0  0  0
   -6.8780   -1.0410  -18.8620 C   0  0  0  0  0  0  0  0  0  0  0  0
   -6.1920   -0.5400  -17.8000 N   0  0  0  0  0  0  0  0  0  0  0  0
   -5.1570    0.2200  -18.0640 C   0  0  0  0  0  0  0  0  0  0  0  0
   -4.7250    0.5370  -19.3790 C   0  0  0  0  0  0  0  0  0  0  0  0
   -3.5990    1.3680  -19.6180 C   0  0  0  0  0  0  0  0  0  0  0  0
   -3.2170    1.6720  -20.8970 C   0  0  0  0  0  0  0  0  0  0  0  0
   -3.9600    1.1690  -21.9870 C   0  0  0  0  0  0  0  0  0  0  0  0
   -5.0450    0.3500  -21.7820 C   0  0  0  0  0  0  0  0  0  0  0  0
   -5.4580    0.0080  -20.4700 C   0  0  0  0  0  0  0  0  0  0  0  0
   -5.5740   -0.0630  -22.6350 H   0  0  0  0  0  0  0  0  0  0  0  0
   -3.6290    1.3780  -23.0000 H   0  0  0  0  0  0  0  0  0  0  0  0
   -2.3510    2.3030  -21.0860 H   0  0  0  0  0  0  0  0  0  0  0  0
   -3.0550    1.7730  -18.7680 H   0  0  0  0  0  0  0  0  0  0  0  0
   -4.6020    0.6270  -17.2150 H   0  0  0  0  0  0  0  0  0  0  0  0
   -7.7300   -1.6610  -18.5860 H   0  0  0  0  0  0  0  0  0  0  0  0
   -6.7950   -1.8990  -22.0380 H   0  0  0  0  0  0  0  0  0  0  0  0
   -8.0410   -2.2440  -20.8460 H   0  0  0  0  0  0  0  0  0  0  0  0
   -9.3950   -2.1690  -23.3970 C   0  0  0  0  0  0  0  0  0  0  0  0
  -10.6670   -2.7290  -22.7520 C   0  0  0  0  0  0  0  0  0  0  0  0
  -10.5860   -2.6370  -21.6640 H   0  0  0  0  0  0  0  0  0  0  0  0
  -10.7250   -3.8070  -22.9660 H   0  0  0  0  0  0  0  0  0  0  0  0
   -8.5300   -2.7920  -23.1560 H   0  0  0  0  0  0  0  0  0  0  0  0
   -9.5100   -2.2190  -24.4850 H   0  0  0  0  0  0  0  0  0  0  0  0
  -10.2450   -0.0760  -24.6360 H   0  0  0  0  0  0  0  0  0  0  0  0
   -9.5070    1.1790  -23.6530 H   0  0  0  0  0  0  0  0  0  0  0  0
  -11.5320    1.3290  -22.3890 H   0  0  0  0  0  0  0  0  0  0  0  0
  -13.0300   -0.4940  -22.0100 H   0  0  0  0  0  0  0  0  0  0  0  0
  -11.9050   -1.9390  -24.3040 H   0  0  0  0  0  0  0  0  0  0  0  0
  -13.0970   -3.9090  -23.3860 H   0  0  0  0  0  0  0  0  0  0  0  0
  -13.2640   -3.0900  -21.8220 H   0  0  0  0  0  0  0  0  0  0  0  0
  -14.1060   -2.4570  -23.2510 H   0  0  0  0  0  0  0  0  0  0  0  0
  1  2  1  0  0  0  0
  1 39  1  0  0  0  0
  1 40  1  0  0  0  0
  1 41  1  0  0  0  0
  2  3  1  0  0  0  0
  2 29  1  0  0  0  0
  2 38  1  0  0  0  0
  3  4  2  0  0  0  0
  3 37  1  0  0  0  0
  4  5  1  0  0  0  0
  4 36  1  0  0  0  0
  5  6  1  0  0  0  0
  5 34  1  0  0  0  0
  5 35  1  0  0  0  0
  6  7  1  0  0  0  0
  6 28  1  0  0  0  0
  7  8  2  0  0  0  0
  7  9  1  0  0  0  0
  9 10  1  0  0  0  0
  9 26  1  0  0  0  0
  9 27  1  0  0  0  0
 10 11  2  0  0  0  0
 10 19  1  0  0  0  0
 11 12  1  0  0  0  0
 11 25  1  0  0  0  0
 12 13  2  0  0  0  0
 13 14  1  0  0  0  0
 13 24  1  0  0  0  0
 14 15  1  0  0  0  0
 14 19  2  0  0  0  0
 15 16  2  0  0  0  0
 15 23  1  0  0  0  0
 16 17  1  0  0  0  0
 16 22  1  0  0  0  0
 17 18  2  0  0  0  0
 17 21  1  0  0  0  0
 18 19  1  0  0  0  0
 18 20  1  0  0  0  0
 28 29  1  0  0  0  0
 28 32  1  0  0  0  0
 28 33  1  0  0  0  0
 29 30  1  0  0  0  0
 29 31  1  0  0  0  0
M  END
$$$$
mol10_score_26.9687
  PyMOL2.5          3D                             0

 57 62  0  0  1  0  0  0  0  0999 V2000
  -10.4080   -0.9780  -23.4620 C   0  0  0  0  0  0  0  0  0  0  0  0
   -9.0070   -1.4000  -23.0240 C   0  0  1  0  0  0  0  0  0  0  0  0
   -8.3920   -0.5130  -21.9290 C   0  0  0  0  0  0  0  0  0  0  0  0
   -7.4220   -1.3910  -21.2880 N   0  0  0  0  0  0  0  0  0  0  0  0
   -6.5680   -0.9850  -20.2340 C   0  0  0  0  0  0  0  0  0  0  0  0
   -6.8410   -1.3440  -18.9390 C   0  0  0  0  0  0  0  0  0  0  0  0
   -6.1110   -0.9400  -17.8700 N   0  0  0  0  0  0  0  0  0  0  0  0
   -5.0790   -0.1650  -18.0930 C   0  0  0  0  0  0  0  0  0  0  0  0
   -4.6830    0.2850  -19.3850 C   0  0  0  0  0  0  0  0  0  0  0  0
   -3.5790    1.1600  -19.5810 C   0  0  0  0  0  0  0  0  0  0  0  0
   -3.2290    1.5610  -20.8400 C   0  0  0  0  0  0  0  0  0  0  0  0
   -3.9450    1.0880  -21.9640 C   0  0  0  0  0  0  0  0  0  0  0  0
   -5.0180    0.2440  -21.7990 C   0  0  0  0  0  0  0  0  0  0  0  0
   -5.4340   -0.1520  -20.5010 C   0  0  0  0  0  0  0  0  0  0  0  0
   -5.5570   -0.1350  -22.6610 H   0  0  0  0  0  0  0  0  0  0  0  0
   -3.6410    1.3970  -22.9600 H   0  0  0  0  0  0  0  0  0  0  0  0
   -2.3920    2.2400  -20.9930 H   0  0  0  0  0  0  0  0  0  0  0  0
   -3.0350    1.5080  -18.7050 H   0  0  0  0  0  0  0  0  0  0  0  0
   -4.4920    0.1360  -17.2230 H   0  0  0  0  0  0  0  0  0  0  0  0
   -7.6860   -1.9910  -18.7100 H   0  0  0  0  0  0  0  0  0  0  0  0
   -7.7140   -2.7240  -21.4650 C   0  0  0  0  0  0  0  0  0  0  0  0
   -7.1260   -3.6280  -20.9030 O   0  0  0  0  0  0  0  0  0  0  0  0
   -8.8740   -2.8560  -22.4620 C   0  0  1  0  0  0  0  0  0  0  0  0
  -10.0970   -3.3110  -21.6420 C   0  0  0  0  0  0  0  0  0  0  0  0
  -11.2210   -3.7780  -22.4480 N   0  0  0  0  0  0  0  0  0  0  0  0
  -12.5700   -3.7390  -21.8820 C   0  0  0  0  0  0  0  0  0  0  0  0
  -13.4190   -2.5890  -22.3220 C   0  0  0  0  0  0  0  0  0  0  0  0
  -14.0800   -1.6480  -21.6130 C   0  0  0  0  0  0  0  0  0  0  0  0
  -14.8310   -0.9150  -22.5000 N   0  3  0  0  0  0  0  0  0  0  0  0
  -14.6200   -1.4030  -23.7300 C   0  0  0  0  0  0  0  0  0  0  0  0
  -13.7670   -2.4250  -23.6460 N   0  0  0  0  0  0  0  0  0  0  0  0
  -13.3940   -3.0410  -24.3780 H   0  0  0  0  0  0  0  0  0  0  0  0
  -15.0590   -1.0250  -24.6270 H   0  0  0  0  0  0  0  0  0  0  0  0
  -15.4680   -0.1800  -22.2070 H   0  0  0  0  0  0  0  0  0  0  0  0
  -14.0390   -1.3870  -20.5690 H   0  0  0  0  0  0  0  0  0  0  0  0
  -13.0910   -4.6390  -22.2260 H   0  0  0  0  0  0  0  0  0  0  0  0
  -12.5060   -3.7620  -20.7880 H   0  0  0  0  0  0  0  0  0  0  0  0
  -11.0510   -4.4040  -23.6470 C   0  0  0  0  0  0  0  0  0  0  0  0
  -12.0140   -4.6930  -24.3650 O   0  0  0  0  0  0  0  0  0  0  0  0
   -9.6340   -4.6640  -24.0530 C   0  0  0  0  0  0  0  0  0  0  0  0
   -9.3660   -5.6750  -24.9720 C   0  0  0  0  0  0  0  0  0  0  0  0
   -8.0730   -5.9040  -25.4120 C   0  0  0  0  0  0  0  0  0  0  0  0
   -7.0610   -5.0800  -24.9350 C   0  0  0  0  0  0  0  0  0  0  0  0
   -5.8120   -5.2620  -25.3950 F   0  0  0  0  0  0  0  0  0  0  0  0
   -7.2910   -4.0910  -24.0010 C   0  0  0  0  0  0  0  0  0  0  0  0
   -8.5910   -3.8960  -23.5190 C   0  0  0  0  0  0  0  0  0  0  0  0
   -6.4510   -3.5170  -23.6230 H   0  0  0  0  0  0  0  0  0  0  0  0
   -7.8260   -6.7060  -26.0980 H   0  0  0  0  0  0  0  0  0  0  0  0
  -10.1950   -6.2800  -25.3230 H   0  0  0  0  0  0  0  0  0  0  0  0
   -9.7540   -4.1060  -20.9720 H   0  0  0  0  0  0  0  0  0  0  0  0
  -10.4220   -2.4560  -21.0380 H   0  0  0  0  0  0  0  0  0  0  0  0
   -7.9010    0.3750  -22.3350 H   0  0  0  0  0  0  0  0  0  0  0  0
   -9.1500   -0.1750  -21.2040 H   0  0  0  0  0  0  0  0  0  0  0  0
   -8.3360   -1.3660  -23.8930 H   0  0  0  0  0  0  0  0  0  0  0  0
  -11.1200   -0.9950  -22.6280 H   0  0  0  0  0  0  0  0  0  0  0  0
  -10.7870   -1.6560  -24.2330 H   0  0  0  0  0  0  0  0  0  0  0  0
  -10.4100    0.0360  -23.8710 H   0  0  0  0  0  0  0  0  0  0  0  0
  1  2  1  0  0  0  0
  1 55  1  0  0  0  0
  1 56  1  0  0  0  0
  1 57  1  0  0  0  0
  2  3  1  0  0  0  0
  2 23  1  0  0  0  0
  2 54  1  0  0  0  0
  3  4  1  0  0  0  0
  3 52  1  0  0  0  0
  3 53  1  0  0  0  0
  4  5  1  0  0  0  0
  4 21  1  0  0  0  0
  5  6  2  0  0  0  0
  5 14  1  0  0  0  0
  6  7  1  0  0  0  0
  6 20  1  0  0  0  0
  7  8  2  0  0  0  0
  8  9  1  0  0  0  0
  8 19  1  0  0  0  0
  9 10  1  0  0  0  0
  9 14  2  0  0  0  0
 10 11  2  0  0  0  0
 10 18  1  0  0  0  0
 11 12  1  0  0  0  0
 11 17  1  0  0  0  0
 12 13  2  0  0  0  0
 12 16  1  0  0  0  0
 13 14  1  0  0  0  0
 13 15  1  0  0  0  0
 21 22  2  0  0  0  0
 21 23  1  0  0  0  0
 23 24  1  0  0  0  0
 23 46  1  0  0  0  0
 24 25  1  0  0  0  0
 24 50  1  0  0  0  0
 24 51  1  0  0  0  0
 25 26  1  0  0  0  0
 25 38  1  0  0  0  0
 26 27  1  0  0  0  0
 26 36  1  0  0  0  0
 26 37  1  0  0  0  0
 27 28  2  0  0  0  0
 27 31  1  0  0  0  0
 28 29  1  0  0  0  0
 28 35  1  0  0  0  0
 29 30  2  0  0  0  0
 29 34  1  0  0  0  0
 30 31  1  0  0  0  0
 30 33  1  0  0  0  0
 31 32  1  0  0  0  0
 38 39  2  0  0  0  0
 38 40  1  0  0  0  0
 40 41  2  0  0  0  0
 40 46  1  0  0  0  0
 41 42  1  0  0  0  0
 41 49  1  0  0  0  0
 42 43  2  0  0  0  0
 42 48  1  0  0  0  0
 43 44  1  0  0  0  0
 43 45  1  0  0  0  0
 45 46  2  0  0  0  0
 45 47  1  0  0  0  0
M  END
$$$$
mol11_score_22.7140
  PyMOL2.5          3D                             0

 48 52  0  0  0  0  0  0  0  0999 V2000
  -10.1060   -0.8330  -23.6160 C   0  0  0  0  0  0  0  0  0  0  0  0
   -9.1550   -1.3980  -22.6820 N   0  0  0  0  0  0  0  0  0  0  0  0
   -8.2920   -0.5770  -22.0100 C   0  0  0  0  0  0  0  0  0  0  0  0
   -8.2220    0.6300  -22.1030 O   0  0  0  0  0  0  0  0  0  0  0  0
   -7.5150   -1.3950  -21.1750 N   0  0  0  0  0  0  0  0  0  0  0  0
   -6.6580   -0.8730  -20.1660 C   0  0  0  0  0  0  0  0  0  0  0  0
   -6.9580   -1.1070  -18.8500 C   0  0  0  0  0  0  0  0  0  0  0  0
   -6.2810   -0.5760  -17.8040 N   0  0  0  0  0  0  0  0  0  0  0  0
   -5.2540    0.1910  -18.0770 C   0  0  0  0  0  0  0  0  0  0  0  0
   -4.8060    0.4820  -19.3960 C   0  0  0  0  0  0  0  0  0  0  0  0
   -3.6670    1.3010  -19.6310 C   0  0  0  0  0  0  0  0  0  0  0  0
   -3.2470    1.5540  -20.9080 C   0  0  0  0  0  0  0  0  0  0  0  0
   -3.9470    1.0040  -22.0050 C   0  0  0  0  0  0  0  0  0  0  0  0
   -5.0550    0.2160  -21.8040 C   0  0  0  0  0  0  0  0  0  0  0  0
   -5.5220   -0.0620  -20.4870 C   0  0  0  0  0  0  0  0  0  0  0  0
   -5.5900   -0.1870  -22.6570 H   0  0  0  0  0  0  0  0  0  0  0  0
   -3.6100    1.2160  -23.0170 H   0  0  0  0  0  0  0  0  0  0  0  0
   -2.3790    2.1850  -21.0910 H   0  0  0  0  0  0  0  0  0  0  0  0
   -3.1500    1.7370  -18.7800 H   0  0  0  0  0  0  0  0  0  0  0  0
   -4.7110    0.6170  -17.2310 H   0  0  0  0  0  0  0  0  0  0  0  0
   -7.8000   -1.7460  -18.5970 H   0  0  0  0  0  0  0  0  0  0  0  0
   -7.9770   -2.7090  -21.2150 C   0  0  0  0  0  0  0  0  0  0  0  0
   -7.6180   -3.6090  -20.5010 O   0  0  0  0  0  0  0  0  0  0  0  0
   -9.0020   -2.7900  -22.3340 C   0  0  0  0  0  0  0  0  0  0  0  0
   -8.6460   -3.8440  -23.4220 C   0  0  0  0  0  0  0  0  0  0  0  0
   -9.9160   -4.5610  -23.2020 N   0  0  0  0  0  0  0  0  0  0  0  0
  -11.0320   -4.5460  -24.4800 S   0  0  0  0  0  0  0  0  0  0  0  0
  -12.2330   -5.1260  -23.9190 O   0  0  0  0  0  0  0  0  0  0  0  0
  -11.0670   -3.2090  -25.0660 O   0  0  0  0  0  0  0  0  0  0  0  0
  -10.3930   -5.6010  -25.7730 C   0  0  0  0  0  0  0  0  0  0  0  0
  -10.1340   -6.9530  -25.5690 C   0  0  0  0  0  0  0  0  0  0  0  0
   -9.6420   -7.7230  -26.6210 C   0  0  0  0  0  0  0  0  0  0  0  0
   -9.4190   -7.1420  -27.8650 C   0  0  0  0  0  0  0  0  0  0  0  0
   -9.7130   -5.7990  -28.0740 C   0  0  0  0  0  0  0  0  0  0  0  0
  -10.2310   -5.0390  -27.0350 C   0  0  0  0  0  0  0  0  0  0  0  0
  -10.5370   -4.0140  -27.1930 H   0  0  0  0  0  0  0  0  0  0  0  0
   -9.5480   -5.3490  -29.0500 H   0  0  0  0  0  0  0  0  0  0  0  0
   -9.0560   -7.7500  -28.6870 H   0  0  0  0  0  0  0  0  0  0  0  0
   -9.4480   -8.7830  -26.4740 H   0  0  0  0  0  0  0  0  0  0  0  0
  -10.3390   -7.4070  -24.6110 H   0  0  0  0  0  0  0  0  0  0  0  0
  -10.2410   -3.6720  -22.0300 C   0  0  0  0  0  0  0  0  0  0  0  0
  -10.1060   -4.2210  -21.0990 H   0  0  0  0  0  0  0  0  0  0  0  0
  -11.2300   -3.2080  -22.0380 H   0  0  0  0  0  0  0  0  0  0  0  0
   -8.5060   -3.4800  -24.4410 H   0  0  0  0  0  0  0  0  0  0  0  0
   -7.8110   -4.4680  -23.0920 H   0  0  0  0  0  0  0  0  0  0  0  0
   -9.9090    0.2410  -23.6320 H   0  0  0  0  0  0  0  0  0  0  0  0
  -11.1340   -1.0030  -23.2830 H   0  0  0  0  0  0  0  0  0  0  0  0
   -9.9650   -1.2600  -24.6100 H   0  0  0  0  0  0  0  0  0  0  0  0
  1  2  1  0  0  0  0
  1 46  1  0  0  0  0
  1 47  1  0  0  0  0
  1 48  1  0  0  0  0
  2  3  1  0  0  0  0
  2 24  1  0  0  0  0
  3  4  2  0  0  0  0
  3  5  1  0  0  0  0
  5  6  1  0  0  0  0
  5 22  1  0  0  0  0
  6  7  2  0  0  0  0
  6 15  1  0  0  0  0
  7  8  1  0  0  0  0
  7 21  1  0  0  0  0
  8  9  2  0  0  0  0
  9 10  1  0  0  0  0
  9 20  1  0  0  0  0
 10 11  1  0  0  0  0
 10 15  2  0  0  0  0
 11 12  2  0  0  0  0
 11 19  1  0  0  0  0
 12 13  1  0  0  0  0
 12 18  1  0  0  0  0
 13 14  2  0  0  0  0
 13 17  1  0  0  0  0
 14 15  1  0  0  0  0
 14 16  1  0  0  0  0
 22 23  2  0  0  0  0
 22 24  1  0  0  0  0
 24 25  1  0  0  0  0
 24 41  1  0  0  0  0
 25 26  1  0  0  0  0
 25 44  1  0  0  0  0
 25 45  1  0  0  0  0
 26 27  1  0  0  0  0
 26 41  1  0  0  0  0
 27 28  2  0  0  0  0
 27 29  2  0  0  0  0
 27 30  1  0  0  0  0
 30 31  2  0  0  0  0
 30 35  1  0  0  0  0
 31 32  1  0  0  0  0
 31 40  1  0  0  0  0
 32 33  2  0  0  0  0
 32 39  1  0  0  0  0
 33 34  1  0  0  0  0
 33 38  1  0  0  0  0
 34 35  2  0  0  0  0
 34 37  1  0  0  0  0
 35 36  1  0  0  0  0
 41 42  1  0  0  0  0
 41 43  1  0  0  0  0
M  END
$$$$
mol12_score_28.4319
  PyMOL2.5          3D                             0

 76 82  0  0  1  0  0  0  0  0999 V2000
  -12.4950    0.3420  -24.5260 O   0  0  0  0  0  0  0  0  0  0  0  0
  -11.6800   -0.4290  -24.0370 C   0  0  0  0  0  0  0  0  0  0  0  0
  -12.0370   -1.3750  -22.9410 C   0  0  0  0  0  0  0  0  0  0  0  0
  -13.2600   -1.2100  -22.2980 C   0  0  0  0  0  0  0  0  0  0  0  0
  -13.6130   -2.0720  -21.2900 C   0  0  0  0  0  0  0  0  0  0  0  0
  -12.8120   -3.1970  -21.0660 C   0  0  0  0  0  0  0  0  0  0  0  0
  -13.4030   -4.4720  -20.0550 Cl  0  0  0  0  0  0  0  0  0  0  0  0
  -11.5840   -3.3490  -21.6710 C   0  0  0  0  0  0  0  0  0  0  0  0
  -11.1120   -2.3260  -22.4900 C   0  0  0  0  0  0  0  0  0  0  0  0
   -9.6390   -2.0990  -22.7070 C   0  0  1  0  0  0  0  0  0  0  0  0
   -9.4890   -1.5230  -24.1320 C   0  0  0  0  0  0  0  0  0  0  0  0
  -10.3470   -0.3750  -24.3390 N   0  0  0  0  0  0  0  0  0  0  0  0
   -9.8610    0.9520  -24.6620 C   0  0  0  0  0  0  0  0  0  0  0  0
   -9.9900    1.8960  -23.4510 C   0  0  0  0  0  0  0  0  0  0  0  0
  -10.3250    3.3040  -23.8080 N   0  3  0  0  0  0  0  0  0  0  0  0
   -9.5680    3.8810  -24.9730 C   0  0  0  0  0  0  0  0  0  0  0  0
   -9.9370    5.3500  -25.1230 C   0  0  0  0  0  0  0  0  0  0  0  0
  -11.3280    5.5240  -25.3240 O   0  0  0  0  0  0  0  0  0  0  0  0
  -12.0720    5.0030  -24.2390 C   0  0  0  0  0  0  0  0  0  0  0  0
  -11.8080    3.5210  -24.0050 C   0  0  0  0  0  0  0  0  0  0  0  0
  -12.3270    3.1700  -23.1070 H   0  0  0  0  0  0  0  0  0  0  0  0
  -12.1530    2.9200  -24.8490 H   0  0  0  0  0  0  0  0  0  0  0  0
  -11.8200    5.5480  -23.3130 H   0  0  0  0  0  0  0  0  0  0  0  0
  -13.1260    5.1790  -24.4690 H   0  0  0  0  0  0  0  0  0  0  0  0
   -9.4370    5.7900  -25.9880 H   0  0  0  0  0  0  0  0  0  0  0  0
   -9.6130    5.8870  -24.2160 H   0  0  0  0  0  0  0  0  0  0  0  0
   -8.4940    3.7560  -24.8110 H   0  0  0  0  0  0  0  0  0  0  0  0
   -9.8510    3.3480  -25.8820 H   0  0  0  0  0  0  0  0  0  0  0  0
  -10.0590    3.8600  -22.9700 H   0  0  0  0  0  0  0  0  0  0  0  0
   -9.0800    1.8920  -22.8480 H   0  0  0  0  0  0  0  0  0  0  0  0
  -10.7980    1.5460  -22.8070 H   0  0  0  0  0  0  0  0  0  0  0  0
   -8.8270    0.8940  -25.0150 H   0  0  0  0  0  0  0  0  0  0  0  0
  -10.4780    1.3120  -25.4900 H   0  0  0  0  0  0  0  0  0  0  0  0
   -9.7660   -2.3150  -24.8410 H   0  0  0  0  0  0  0  0  0  0  0  0
   -8.4520   -1.2340  -24.3300 H   0  0  0  0  0  0  0  0  0  0  0  0
   -9.0990   -1.0800  -21.6660 C   0  0  0  0  0  0  0  0  0  0  0  0
   -9.6520   -0.0910  -21.2300 O   0  0  0  0  0  0  0  0  0  0  0  0
   -7.8290   -1.4650  -21.3140 N   0  0  0  0  0  0  0  0  0  0  0  0
   -7.1160   -0.8580  -20.2600 C   0  0  0  0  0  0  0  0  0  0  0  0
   -7.4960   -1.0340  -18.9560 C   0  0  0  0  0  0  0  0  0  0  0  0
   -6.7790   -0.5890  -17.8950 N   0  0  0  0  0  0  0  0  0  0  0  0
   -5.6720    0.0670  -18.1420 C   0  0  0  0  0  0  0  0  0  0  0  0
   -5.1900    0.3540  -19.4500 C   0  0  0  0  0  0  0  0  0  0  0  0
   -4.0090    1.1060  -19.6810 C   0  0  0  0  0  0  0  0  0  0  0  0
   -3.5650    1.3130  -20.9570 C   0  0  0  0  0  0  0  0  0  0  0  0
   -4.2780    0.7930  -22.0610 C   0  0  0  0  0  0  0  0  0  0  0  0
   -5.4410    0.0920  -21.8650 C   0  0  0  0  0  0  0  0  0  0  0  0
   -5.9200   -0.1400  -20.5500 C   0  0  0  0  0  0  0  0  0  0  0  0
   -6.0080   -0.2860  -22.7110 H   0  0  0  0  0  0  0  0  0  0  0  0
   -3.9090    0.9540  -23.0680 H   0  0  0  0  0  0  0  0  0  0  0  0
   -2.6600    1.8880  -21.1320 H   0  0  0  0  0  0  0  0  0  0  0  0
   -3.4830    1.5180  -18.8250 H   0  0  0  0  0  0  0  0  0  0  0  0
   -5.0900    0.3950  -17.2800 H   0  0  0  0  0  0  0  0  0  0  0  0
   -8.4070   -1.5800  -18.7190 H   0  0  0  0  0  0  0  0  0  0  0  0
   -7.3990   -2.7020  -21.9270 C   0  0  0  0  0  0  0  0  0  0  0  0
   -8.7250   -3.3110  -22.4030 C   0  0  2  0  0  0  0  0  0  0  0  0
   -8.4840   -4.3390  -23.4950 C   0  0  0  0  0  0  0  0  0  0  0  0
   -9.6760   -4.9640  -24.0400 N   0  0  0  0  0  0  0  0  0  0  0  0
   -9.5440   -5.7940  -25.1130 C   0  0  0  0  0  0  0  0  0  0  0  0
  -10.6050   -6.5460  -25.4550 N   0  0  0  0  0  0  0  0  0  0  0  0
  -10.4610   -7.2750  -26.5560 C   0  0  0  0  0  0  0  0  0  0  0  0
   -9.3060   -7.2760  -27.3350 C   0  0  0  0  0  0  0  0  0  0  0  0
   -8.2650   -6.4950  -26.8580 C   0  0  0  0  0  0  0  0  0  0  0  0
   -8.3580   -5.7650  -25.7520 N   0  0  0  0  0  0  0  0  0  0  0  0
   -7.3110   -6.4400  -27.3870 H   0  0  0  0  0  0  0  0  0  0  0  0
   -9.2250   -7.8510  -28.2500 H   0  0  0  0  0  0  0  0  0  0  0  0
  -11.3120   -7.8940  -26.8390 H   0  0  0  0  0  0  0  0  0  0  0  0
  -10.5360   -5.0380  -23.5150 H   0  0  0  0  0  0  0  0  0  0  0  0
   -7.8020   -5.1160  -23.1170 H   0  0  0  0  0  0  0  0  0  0  0  0
   -7.9770   -3.8630  -24.3420 H   0  0  0  0  0  0  0  0  0  0  0  0
   -9.1630   -3.7900  -21.5230 H   0  0  0  0  0  0  0  0  0  0  0  0
   -6.7080   -2.5290  -22.7710 H   0  0  0  0  0  0  0  0  0  0  0  0
   -6.8840   -3.3260  -21.1880 H   0  0  0  0  0  0  0  0  0  0  0  0
  -10.9900   -4.2250  -21.4420 H   0  0  0  0  0  0  0  0  0  0  0  0
  -14.5300   -1.9630  -20.7170 H   0  0  0  0  0  0  0  0  0  0  0  0
  -13.9060   -0.3810  -22.5770 H   0  0  0  0  0  0  0  0  0  0  0  0
  1  2  2  0  0  0  0
  2  3  1  0  0  0  0
  2 12  1  0  0  0  0
  3  4  1  0  0  0  0
  3  9  2  0  0  0  0
  4  5  2  0  0  0  0
  4 76  1  0  0  0  0
  5  6  1  0  0  0  0
  5 75  1  0  0  0  0
  6  7  1  0  0  0  0
  6  8  2  0  0  0  0
  8  9  1  0  0  0  0
  8 74  1  0  0  0  0
  9 10  1  0  0  0  0
 10 11  1  0  0  0  0
 10 36  1  0  0  0  0
 10 56  1  0  0  0  0
 11 12  1  0  0  0  0
 11 34  1  0  0  0  0
 11 35  1  0  0  0  0
 12 13  1  0  0  0  0
 13 14  1  0  0  0  0
 13 32  1  0  0  0  0
 13 33  1  0  0  0  0
 14 15  1  0  0  0  0
 14 30  1  0  0  0  0
 14 31  1  0  0  0  0
 15 16  1  0  0  0  0
 15 20  1  0  0  0  0
 15 29  1  0  0  0  0
 16 17  1  0  0  0  0
 16 27  1  0  0  0  0
 16 28  1  0  0  0  0
 17 18  1  0  0  0  0
 17 25  1  0  0  0  0
 17 26  1  0  0  0  0
 18 19  1  0  0  0  0
 19 20  1  0  0  0  0
 19 23  1  0  0  0  0
 19 24  1  0  0  0  0
 20 21  1  0  0  0  0
 20 22  1  0  0  0  0
 36 37  2  0  0  0  0
 36 38  1  0  0  0  0
 38 39  1  0  0  0  0
 38 55  1  0  0  0  0
 39 40  2  0  0  0  0
 39 48  1  0  0  0  0
 40 41  1  0  0  0  0
 40 54  1  0  0  0  0
 41 42  2  0  0  0  0
 42 43  1  0  0  0  0
 42 53  1  0  0  0  0
 43 44  1  0  0  0  0
 43 48  2  0  0  0  0
 44 45  2  0  0  0  0
 44 52  1  0  0  0  0
 45 46  1  0  0  0  0
 45 51  1  0  0  0  0
 46 47  2  0  0  0  0
 46 50  1  0  0  0  0
 47 48  1  0  0  0  0
 47 49  1  0  0  0  0
 55 56  1  0  0  0  0
 55 72  1  0  0  0  0
 55 73  1  0  0  0  0
 56 57  1  0  0  0  0
 56 71  1  0  0  0  0
 57 58  1  0  0  0  0
 57 69  1  0  0  0  0
 57 70  1  0  0  0  0
 58 59  1  0  0  0  0
 58 68  1  0  0  0  0
 59 60  2  0  0  0  0
 59 64  1  0  0  0  0
 60 61  1  0  0  0  0
 61 62  2  0  0  0  0
 61 67  1  0  0  0  0
 62 63  1  0  0  0  0
 62 66  1  0  0  0  0
 63 64  2  0  0  0  0
 63 65  1  0  0  0  0
M  END
$$$$
mol13_score_31.3890
  PyMOL2.5          3D                             0

 69 74  0  0  1  0  0  0  0  0999 V2000
   -5.1070   -4.0290  -19.3770 C   0  0  0  0  0  0  0  0  0  0  0  0
   -6.2490   -4.7760  -19.8840 N   0  0  0  0  0  0  0  0  0  0  0  0
   -6.0460   -5.7270  -20.8430 C   0  0  0  0  0  0  0  0  0  0  0  0
   -4.9250   -6.1430  -21.0950 O   0  0  0  0  0  0  0  0  0  0  0  0
   -7.2800   -6.2240  -21.6160 C   0  0  0  0  0  0  0  0  0  0  0  0
   -7.5980   -5.3190  -22.7040 N   0  0  0  0  0  0  0  0  0  0  0  0
   -8.5050   -4.2150  -22.4930 C   0  0  0  0  0  0  0  0  0  0  0  0
   -7.9270   -2.8670  -23.0030 C   0  0  2  0  0  0  0  0  0  0  0  0
   -6.7950   -2.3720  -22.0810 C   0  0  0  0  0  0  0  0  0  0  0  0
   -5.6370   -2.7500  -22.0670 O   0  0  0  0  0  0  0  0  0  0  0  0
   -7.3080   -1.4150  -21.2380 N   0  0  0  0  0  0  0  0  0  0  0  0
   -6.5610   -0.8360  -20.1990 C   0  0  0  0  0  0  0  0  0  0  0  0
   -6.9150   -1.0520  -18.8900 C   0  0  0  0  0  0  0  0  0  0  0  0
   -6.2310   -0.5610  -17.8340 N   0  0  0  0  0  0  0  0  0  0  0  0
   -5.1820    0.1840  -18.0850 C   0  0  0  0  0  0  0  0  0  0  0  0
   -4.7300    0.5060  -19.3960 C   0  0  0  0  0  0  0  0  0  0  0  0
   -3.6080    1.3440  -19.6170 C   0  0  0  0  0  0  0  0  0  0  0  0
   -3.2270    1.6710  -20.8880 C   0  0  0  0  0  0  0  0  0  0  0  0
   -3.9440    1.1760  -22.0000 C   0  0  0  0  0  0  0  0  0  0  0  0
   -5.0270    0.3550  -21.8160 C   0  0  0  0  0  0  0  0  0  0  0  0
   -5.4380   -0.0070  -20.5010 C   0  0  0  0  0  0  0  0  0  0  0  0
   -5.5730   -0.0280  -22.6730 H   0  0  0  0  0  0  0  0  0  0  0  0
   -3.6260    1.4420  -23.0040 H   0  0  0  0  0  0  0  0  0  0  0  0
   -2.3680    2.3130  -21.0540 H   0  0  0  0  0  0  0  0  0  0  0  0
   -3.0750    1.7270  -18.7520 H   0  0  0  0  0  0  0  0  0  0  0  0
   -4.6330    0.5720  -17.2300 H   0  0  0  0  0  0  0  0  0  0  0  0
   -7.7860   -1.6640  -18.6580 H   0  0  0  0  0  0  0  0  0  0  0  0
   -8.7310   -1.2100  -21.3960 C   0  0  0  0  0  0  0  0  0  0  0  0
   -8.9680   -1.7560  -22.8070 C   0  0  2  0  0  0  0  0  0  0  0  0
  -10.3970   -2.1730  -23.0560 C   0  0  0  0  0  0  0  0  0  0  0  0
  -11.1950   -0.9820  -23.2090 N   0  0  0  0  0  0  0  0  0  0  0  0
  -12.5380   -1.1240  -23.3230 C   0  0  0  0  0  0  0  0  0  0  0  0
  -13.4120   -0.0590  -23.0420 C   0  0  0  0  0  0  0  0  0  0  0  0
  -14.7420   -0.3920  -23.0500 C   0  0  0  0  0  0  0  0  0  0  0  0
  -15.1940   -1.5970  -23.4030 N   0  0  0  0  0  0  0  0  0  0  0  0
  -14.2930   -2.4920  -23.7780 C   0  0  0  0  0  0  0  0  0  0  0  0
  -14.8210   -3.7890  -24.3270 C   0  0  0  0  0  0  0  0  0  0  0  0
  -14.9150   -3.6980  -25.4160 H   0  0  0  0  0  0  0  0  0  0  0  0
  -14.1540   -4.6240  -24.0910 H   0  0  0  0  0  0  0  0  0  0  0  0
  -15.8130   -3.9680  -23.9040 H   0  0  0  0  0  0  0  0  0  0  0  0
  -12.9720   -2.3190  -23.7380 N   0  0  0  0  0  0  0  0  0  0  0  0
  -15.5120    0.3210  -22.7670 H   0  0  0  0  0  0  0  0  0  0  0  0
  -13.0600    0.9360  -22.7770 H   0  0  0  0  0  0  0  0  0  0  0  0
  -10.8880   -0.1560  -22.7130 H   0  0  0  0  0  0  0  0  0  0  0  0
  -10.4930   -2.7850  -23.9610 H   0  0  0  0  0  0  0  0  0  0  0  0
  -10.7470   -2.8090  -22.2210 H   0  0  0  0  0  0  0  0  0  0  0  0
   -8.7260   -0.9420  -23.4890 H   0  0  0  0  0  0  0  0  0  0  0  0
   -9.3150   -1.7710  -20.6510 H   0  0  0  0  0  0  0  0  0  0  0  0
   -8.9780   -0.1490  -21.2920 H   0  0  0  0  0  0  0  0  0  0  0  0
   -7.4380   -3.0630  -24.4180 C   0  0  0  0  0  0  0  0  0  0  0  0
   -7.3370   -1.9900  -25.3160 C   0  0  0  0  0  0  0  0  0  0  0  0
   -6.8250   -2.1890  -26.5840 C   0  0  0  0  0  0  0  0  0  0  0  0
   -6.6770   -0.8240  -27.6580 Cl  0  0  0  0  0  0  0  0  0  0  0  0
   -6.4130   -3.4510  -27.0110 C   0  0  0  0  0  0  0  0  0  0  0  0
   -6.5010   -4.5110  -26.1290 C   0  0  0  0  0  0  0  0  0  0  0  0
   -6.9930   -4.3220  -24.8390 C   0  0  0  0  0  0  0  0  0  0  0  0
   -6.9570   -5.4920  -23.9020 C   0  0  0  0  0  0  0  0  0  0  0  0
   -6.3720   -6.5300  -24.1910 O   0  0  0  0  0  0  0  0  0  0  0  0
   -6.1760   -5.5090  -26.4030 H   0  0  0  0  0  0  0  0  0  0  0  0
   -6.0210   -3.5880  -28.0120 H   0  0  0  0  0  0  0  0  0  0  0  0
   -7.6410   -0.9880  -25.0420 H   0  0  0  0  0  0  0  0  0  0  0  0
   -9.4400   -4.4160  -23.0310 H   0  0  0  0  0  0  0  0  0  0  0  0
   -8.7420   -4.1390  -21.4260 H   0  0  0  0  0  0  0  0  0  0  0  0
   -7.0270   -7.1830  -22.0650 H   0  0  0  0  0  0  0  0  0  0  0  0
   -8.1550   -6.3560  -20.9680 H   0  0  0  0  0  0  0  0  0  0  0  0
   -7.1350   -4.2830  -19.8650 H   0  0  0  0  0  0  0  0  0  0  0  0
   -4.3080   -4.7440  -19.2340 H   0  0  0  0  0  0  0  0  0  0  0  0
   -5.3670   -3.5460  -18.4300 H   0  0  0  0  0  0  0  0  0  0  0  0
   -4.7790   -3.2610  -20.0880 H   0  0  0  0  0  0  0  0  0  0  0  0
  1  2  1  0  0  0  0
  1 67  1  0  0  0  0
  1 68  1  0  0  0  0
  1 69  1  0  0  0  0
  2  3  1  0  0  0  0
  2 66  1  0  0  0  0
  3  4  2  0  0  0  0
  3  5  1  0  0  0  0
  5  6  1  0  0  0  0
  5 64  1  0  0  0  0
  5 65  1  0  0  0  0
  6  7  1  0  0  0  0
  6 57  1  0  0  0  0
  7  8  1  0  0  0  0
  7 62  1  0  0  0  0
  7 63  1  0  0  0  0
  8  9  1  0  0  0  0
  8 29  1  0  0  0  0
  8 50  1  0  0  0  0
  9 10  2  0  0  0  0
  9 11  1  0  0  0  0
 11 12  1  0  0  0  0
 11 28  1  0  0  0  0
 12 13  2  0  0  0  0
 12 21  1  0  0  0  0
 13 14  1  0  0  0  0
 13 27  1  0  0  0  0
 14 15  2  0  0  0  0
 15 16  1  0  0  0  0
 15 26  1  0  0  0  0
 16 17  1  0  0  0  0
 16 21  2  0  0  0  0
 17 18  2  0  0  0  0
 17 25  1  0  0  0  0
 18 19  1  0  0  0  0
 18 24  1  0  0  0  0
 19 20  2  0  0  0  0
 19 23  1  0  0  0  0
 20 21  1  0  0  0  0
 20 22  1  0  0  0  0
 28 29  1  0  0  0  0
 28 48  1  0  0  0  0
 28 49  1  0  0  0  0
 29 30  1  0  0  0  0
 29 47  1  0  0  0  0
 30 31  1  0  0  0  0
 30 45  1  0  0  0  0
 30 46  1  0  0  0  0
 31 32  1  0  0  0  0
 31 44  1  0  0  0  0
 32 33  2  0  0  0  0
 32 41  1  0  0  0  0
 33 34  1  0  0  0  0
 33 43  1  0  0  0  0
 34 35  2  0  0  0  0
 34 42  1  0  0  0  0
 35 36  1  0  0  0  0
 36 37  1  0  0  0  0
 36 41  2  0  0  0  0
 37 38  1  0  0  0  0
 37 39  1  0  0  0  0
 37 40  1  0  0  0  0
 50 51  1  0  0  0  0
 50 56  2  0  0  0  0
 51 52  2  0  0  0  0
 51 61  1  0  0  0  0
 52 53  1  0  0  0  0
 52 54  1  0  0  0  0
 54 55  2  0  0  0  0
 54 60  1  0  0  0  0
 55 56  1  0  0  0  0
 55 59  1  0  0  0  0
 56 57  1  0  0  0  0
 57 58  2  0  0  0  0
M  END
$$$$
mol14_score_24.7983
  PyMOL2.5          3D                             0

 73 78  0  0  1  0  0  0  0  0999 V2000
   -8.4180   -4.1660  -23.4080 C   0  0  0  0  0  0  0  0  0  0  0  0
   -8.5340   -2.9400  -22.5200 C   0  0  1  0  0  0  0  0  0  0  0  0
   -7.3370   -2.6900  -21.6060 C   0  0  0  0  0  0  0  0  0  0  0  0
   -7.4270   -1.2710  -21.3360 N   0  0  0  0  0  0  0  0  0  0  0  0
   -6.6540   -0.6760  -20.3110 C   0  0  0  0  0  0  0  0  0  0  0  0
   -6.9780   -0.9340  -19.0040 C   0  0  0  0  0  0  0  0  0  0  0  0
   -6.3130   -0.4430  -17.9330 N   0  0  0  0  0  0  0  0  0  0  0  0
   -5.2540    0.2930  -18.1670 C   0  0  0  0  0  0  0  0  0  0  0  0
   -4.7720    0.5950  -19.4700 C   0  0  0  0  0  0  0  0  0  0  0  0
   -3.6050    1.3810  -19.6650 C   0  0  0  0  0  0  0  0  0  0  0  0
   -3.1420    1.6350  -20.9260 C   0  0  0  0  0  0  0  0  0  0  0  0
   -3.8200    1.1090  -22.0490 C   0  0  0  0  0  0  0  0  0  0  0  0
   -4.9540    0.3520  -21.8880 C   0  0  0  0  0  0  0  0  0  0  0  0
   -5.4750    0.0900  -20.5890 C   0  0  0  0  0  0  0  0  0  0  0  0
   -5.4590   -0.0540  -22.7600 H   0  0  0  0  0  0  0  0  0  0  0  0
   -3.4400    1.3110  -23.0460 H   0  0  0  0  0  0  0  0  0  0  0  0
   -2.2580    2.2500  -21.0740 H   0  0  0  0  0  0  0  0  0  0  0  0
   -3.0960    1.7790  -18.7910 H   0  0  0  0  0  0  0  0  0  0  0  0
   -4.7120    0.6780  -17.3020 H   0  0  0  0  0  0  0  0  0  0  0  0
   -7.8360   -1.5660  -18.7790 H   0  0  0  0  0  0  0  0  0  0  0  0
   -8.2790   -0.5880  -22.1810 C   0  0  0  0  0  0  0  0  0  0  0  0
   -8.5190    0.6010  -22.1060 O   0  0  0  0  0  0  0  0  0  0  0  0
   -8.7830   -1.5790  -23.2500 C   0  0  1  0  0  0  0  0  0  0  0  0
   -7.8990   -1.3250  -24.5150 C   0  0  0  0  0  0  0  0  0  0  0  0
   -8.4190   -1.8710  -25.7650 N   0  0  0  0  0  0  0  0  0  0  0  0
   -7.5370   -2.1010  -26.9100 C   0  0  0  0  0  0  0  0  0  0  0  0
   -7.0640   -3.5490  -27.0480 C   0  0  0  0  0  0  0  0  0  0  0  0
   -8.1830   -4.5430  -27.1540 N   0  3  0  0  0  0  0  0  0  0  0  0
   -7.7210   -5.9100  -26.7070 C   0  0  0  0  0  0  0  0  0  0  0  0
   -8.5900   -7.0350  -27.2630 C   0  0  0  0  0  0  0  0  0  0  0  0
   -8.5760   -7.0830  -28.7390 N   0  0  0  0  0  0  0  0  0  0  0  0
   -7.7130   -8.3090  -29.5200 S   0  0  0  0  0  0  0  0  0  0  0  0
   -7.6900   -7.9360  -30.9270 O   0  0  0  0  0  0  0  0  0  0  0  0
   -6.4620   -8.5400  -28.8090 O   0  0  0  0  0  0  0  0  0  0  0  0
   -8.6740   -9.8240  -29.4160 C   0  0  0  0  0  0  0  0  0  0  0  0
   -9.4010   -9.8310  -30.2300 H   0  0  0  0  0  0  0  0  0  0  0  0
   -7.9680  -10.6480  -29.5460 H   0  0  0  0  0  0  0  0  0  0  0  0
   -9.1670   -9.9130  -28.4430 H   0  0  0  0  0  0  0  0  0  0  0  0
   -8.2550   -5.7720  -29.3460 C   0  0  0  0  0  0  0  0  0  0  0  0
   -8.8150   -4.6200  -28.5290 C   0  0  0  0  0  0  0  0  0  0  0  0
   -9.8960   -4.7210  -28.4020 H   0  0  0  0  0  0  0  0  0  0  0  0
   -8.6240   -3.6800  -29.0470 H   0  0  0  0  0  0  0  0  0  0  0  0
   -7.1680   -5.6320  -29.4620 H   0  0  0  0  0  0  0  0  0  0  0  0
   -8.6870   -5.7940  -30.3380 H   0  0  0  0  0  0  0  0  0  0  0  0
   -9.6290   -6.8860  -26.9420 H   0  0  0  0  0  0  0  0  0  0  0  0
   -8.2510   -7.9840  -26.8520 H   0  0  0  0  0  0  0  0  0  0  0  0
   -6.6860   -6.0540  -27.0410 H   0  0  0  0  0  0  0  0  0  0  0  0
   -7.7180   -5.9400  -25.6140 H   0  0  0  0  0  0  0  0  0  0  0  0
   -8.9330   -4.2260  -26.5250 H   0  0  0  0  0  0  0  0  0  0  0  0
   -6.4180   -3.6410  -27.9290 H   0  0  0  0  0  0  0  0  0  0  0  0
   -6.4600   -3.8150  -26.1740 H   0  0  0  0  0  0  0  0  0  0  0  0
   -6.6670   -1.4380  -26.8460 H   0  0  0  0  0  0  0  0  0  0  0  0
   -8.1010   -1.8240  -27.8030 H   0  0  0  0  0  0  0  0  0  0  0  0
   -9.7510   -1.9820  -26.0020 C   0  0  0  0  0  0  0  0  0  0  0  0
  -10.1820   -2.4610  -27.0530 O   0  0  0  0  0  0  0  0  0  0  0  0
  -10.6860   -1.5940  -24.9120 C   0  0  0  0  0  0  0  0  0  0  0  0
  -12.0390   -1.5820  -25.2310 C   0  0  0  0  0  0  0  0  0  0  0  0
  -12.9940   -1.4540  -24.2430 C   0  0  0  0  0  0  0  0  0  0  0  0
  -12.5740   -1.3530  -22.9170 C   0  0  0  0  0  0  0  0  0  0  0  0
  -13.8090   -1.3050  -21.6930 Cl  0  0  0  0  0  0  0  0  0  0  0  0
  -11.2260   -1.3500  -22.5870 C   0  0  0  0  0  0  0  0  0  0  0  0
  -10.2510   -1.4340  -23.5970 C   0  0  0  0  0  0  0  0  0  0  0  0
  -10.9270   -1.3360  -21.5460 H   0  0  0  0  0  0  0  0  0  0  0  0
  -14.0480   -1.5000  -24.4870 H   0  0  0  0  0  0  0  0  0  0  0  0
  -12.3150   -1.7190  -26.2710 H   0  0  0  0  0  0  0  0  0  0  0  0
   -6.9040   -1.7570  -24.3510 H   0  0  0  0  0  0  0  0  0  0  0  0
   -7.7860   -0.2350  -24.6050 H   0  0  0  0  0  0  0  0  0  0  0  0
   -6.3820   -2.9530  -22.0820 H   0  0  0  0  0  0  0  0  0  0  0  0
   -7.3950   -3.2480  -20.6710 H   0  0  0  0  0  0  0  0  0  0  0  0
   -9.4060   -3.0720  -21.8650 H   0  0  0  0  0  0  0  0  0  0  0  0
   -7.5320   -4.0990  -24.0480 H   0  0  0  0  0  0  0  0  0  0  0  0
   -8.3300   -5.0750  -22.8050 H   0  0  0  0  0  0  0  0  0  0  0  0
   -9.3000   -4.2620  -24.0530 H   0  0  0  0  0  0  0  0  0  0  0  0
  1  2  1  0  0  0  0
  1 71  1  0  0  0  0
  1 72  1  0  0  0  0
  1 73  1  0  0  0  0
  2  3  1  0  0  0  0
  2 23  1  0  0  0  0
  2 70  1  0  0  0  0
  3  4  1  0  0  0  0
  3 68  1  0  0  0  0
  3 69  1  0  0  0  0
  4  5  1  0  0  0  0
  4 21  1  0  0  0  0
  5  6  2  0  0  0  0
  5 14  1  0  0  0  0
  6  7  1  0  0  0  0
  6 20  1  0  0  0  0
  7  8  2  0  0  0  0
  8  9  1  0  0  0  0
  8 19  1  0  0  0  0
  9 10  1  0  0  0  0
  9 14  2  0  0  0  0
 10 11  2  0  0  0  0
 10 18  1  0  0  0  0
 11 12  1  0  0  0  0
 11 17  1  0  0  0  0
 12 13  2  0  0  0  0
 12 16  1  0  0  0  0
 13 14  1  0  0  0  0
 13 15  1  0  0  0  0
 21 22  2  0  0  0  0
 21 23  1  0  0  0  0
 23 24  1  0  0  0  0
 23 62  1  0  0  0  0
 24 25  1  0  0  0  0
 24 66  1  0  0  0  0
 24 67  1  0  0  0  0
 25 26  1  0  0  0  0
 25 54  1  0  0  0  0
 26 27  1  0  0  0  0
 26 52  1  0  0  0  0
 26 53  1  0  0  0  0
 27 28  1  0  0  0  0
 27 50  1  0  0  0  0
 27 51  1  0  0  0  0
 28 29  1  0  0  0  0
 28 40  1  0  0  0  0
 28 49  1  0  0  0  0
 29 30  1  0  0  0  0
 29 47  1  0  0  0  0
 29 48  1  0  0  0  0
 30 31  1  0  0  0  0
 30 45  1  0  0  0  0
 30 46  1  0  0  0  0
 31 32  1  0  0  0  0
 31 39  1  0  0  0  0
 32 33  2  0  0  0  0
 32 34  2  0  0  0  0
 32 35  1  0  0  0  0
 35 36  1  0  0  0  0
 35 37  1  0  0  0  0
 35 38  1  0  0  0  0
 39 40  1  0  0  0  0
 39 43  1  0  0  0  0
 39 44  1  0  0  0  0
 40 41  1  0  0  0  0
 40 42  1  0  0  0  0
 54 55  2  0  0  0  0
 54 56  1  0  0  0  0
 56 57  2  0  0  0  0
 56 62  1  0  0  0  0
 57 58  1  0  0  0  0
 57 65  1  0  0  0  0
 58 59  2  0  0  0  0
 58 64  1  0  0  0  0
 59 60  1  0  0  0  0
 59 61  1  0  0  0  0
 61 62  2  0  0  0  0
 61 63  1  0  0  0  0
M  END
$$$$
mol15_score_25.9093
  PyMOL2.5          3D                             0

 63 68  0  0  1  0  0  0  0  0999 V2000
   -7.4880    3.3190  -21.6880 C   0  0  0  0  0  0  0  0  0  0  0  0
   -8.4210    2.8810  -22.7070 N   0  0  0  0  0  0  0  0  0  0  0  0
   -7.8840    2.2120  -23.7530 C   0  0  0  0  0  0  0  0  0  0  0  0
   -6.6730    2.1230  -23.9090 O   0  0  0  0  0  0  0  0  0  0  0  0
   -8.8410    1.5910  -24.7670 C   0  0  0  0  0  0  0  0  0  0  0  0
   -9.5130    0.4020  -24.2890 N   0  0  0  0  0  0  0  0  0  0  0  0
   -8.7500   -0.8300  -24.1790 C   0  0  0  0  0  0  0  0  0  0  0  0
   -9.0780   -1.5820  -22.8680 C   0  0  2  0  0  0  0  0  0  0  0  0
   -8.5420   -0.7870  -21.6470 C   0  0  0  0  0  0  0  0  0  0  0  0
   -9.0350    0.2060  -21.1430 O   0  0  0  0  0  0  0  0  0  0  0  0
   -7.3860   -1.3890  -21.2080 N   0  0  0  0  0  0  0  0  0  0  0  0
   -6.5990   -0.8140  -20.1750 C   0  0  0  0  0  0  0  0  0  0  0  0
   -6.9070   -1.0460  -18.8580 C   0  0  0  0  0  0  0  0  0  0  0  0
   -6.2020   -0.5490  -17.8140 N   0  0  0  0  0  0  0  0  0  0  0  0
   -5.1670    0.2070  -18.0790 C   0  0  0  0  0  0  0  0  0  0  0  0
   -4.7310    0.5320  -19.3950 C   0  0  0  0  0  0  0  0  0  0  0  0
   -3.6100    1.3740  -19.6390 C   0  0  0  0  0  0  0  0  0  0  0  0
   -3.2350    1.6750  -20.9190 C   0  0  0  0  0  0  0  0  0  0  0  0
   -3.9600    1.1490  -22.0130 C   0  0  0  0  0  0  0  0  0  0  0  0
   -5.0450    0.3330  -21.8030 C   0  0  0  0  0  0  0  0  0  0  0  0
   -5.4650    0.0040  -20.4850 C   0  0  0  0  0  0  0  0  0  0  0  0
   -5.6070   -0.0490  -22.6500 H   0  0  0  0  0  0  0  0  0  0  0  0
   -3.6610    1.3940  -23.0260 H   0  0  0  0  0  0  0  0  0  0  0  0
   -2.3780    2.3170  -21.1030 H   0  0  0  0  0  0  0  0  0  0  0  0
   -3.0710    1.7740  -18.7850 H   0  0  0  0  0  0  0  0  0  0  0  0
   -4.6160    0.6100  -17.2280 H   0  0  0  0  0  0  0  0  0  0  0  0
   -7.7590   -1.6700  -18.6010 H   0  0  0  0  0  0  0  0  0  0  0  0
   -7.0220   -2.5880  -21.9350 C   0  0  0  0  0  0  0  0  0  0  0  0
   -8.2900   -2.9220  -22.7410 C   0  0  2  0  0  0  0  0  0  0  0  0
   -7.9700   -3.6690  -24.0520 C   0  0  0  0  0  0  0  0  0  0  0  0
   -7.3930   -4.9850  -23.8160 N   0  0  0  0  0  0  0  0  0  0  0  0
   -8.0710   -6.1170  -23.5180 C   0  0  0  0  0  0  0  0  0  0  0  0
   -7.1340   -7.1010  -23.2880 C   0  0  0  0  0  0  0  0  0  0  0  0
   -5.8980   -6.4430  -23.4790 C   0  0  0  0  0  0  0  0  0  0  0  0
   -6.0630   -5.1630  -23.7920 N   0  0  0  0  0  0  0  0  0  0  0  0
   -4.8880   -6.8340  -23.4030 H   0  0  0  0  0  0  0  0  0  0  0  0
   -7.3160   -8.1350  -23.0200 H   0  0  0  0  0  0  0  0  0  0  0  0
   -9.1560   -6.1120  -23.5010 H   0  0  0  0  0  0  0  0  0  0  0  0
   -7.2340   -3.1210  -24.6490 H   0  0  0  0  0  0  0  0  0  0  0  0
   -8.8830   -3.8160  -24.6430 H   0  0  0  0  0  0  0  0  0  0  0  0
   -8.9110   -3.5920  -22.1420 H   0  0  0  0  0  0  0  0  0  0  0  0
   -6.1640   -2.4080  -22.6020 H   0  0  0  0  0  0  0  0  0  0  0  0
   -6.7380   -3.3880  -21.2430 H   0  0  0  0  0  0  0  0  0  0  0  0
  -10.5890   -1.6880  -22.7730 C   0  0  0  0  0  0  0  0  0  0  0  0
  -11.1640   -2.6060  -21.8920 C   0  0  0  0  0  0  0  0  0  0  0  0
  -12.5310   -2.6430  -21.7120 C   0  0  0  0  0  0  0  0  0  0  0  0
  -13.1450   -3.6690  -20.4490 Cl  0  0  0  0  0  0  0  0  0  0  0  0
  -13.3830   -1.8140  -22.4450 C   0  0  0  0  0  0  0  0  0  0  0  0
  -12.8240   -0.8660  -23.2790 C   0  0  0  0  0  0  0  0  0  0  0  0
  -11.4380   -0.7700  -23.4080 C   0  0  0  0  0  0  0  0  0  0  0  0
  -10.8780    0.4000  -24.1590 C   0  0  0  0  0  0  0  0  0  0  0  0
  -11.5890    1.2970  -24.5860 O   0  0  0  0  0  0  0  0  0  0  0  0
  -13.4350   -0.1440  -23.8120 H   0  0  0  0  0  0  0  0  0  0  0  0
  -14.4580   -1.8780  -22.3330 H   0  0  0  0  0  0  0  0  0  0  0  0
  -10.5570   -3.2710  -21.2890 H   0  0  0  0  0  0  0  0  0  0  0  0
   -8.9710   -1.4930  -25.0300 H   0  0  0  0  0  0  0  0  0  0  0  0
   -7.6900   -0.5560  -24.1950 H   0  0  0  0  0  0  0  0  0  0  0  0
   -9.6360    2.2880  -25.0240 H   0  0  0  0  0  0  0  0  0  0  0  0
   -8.2320    1.3650  -25.6520 H   0  0  0  0  0  0  0  0  0  0  0  0
   -9.4000    2.7610  -22.4920 H   0  0  0  0  0  0  0  0  0  0  0  0
   -6.8360    2.4810  -21.4170 H   0  0  0  0  0  0  0  0  0  0  0  0
   -8.0240    3.6790  -20.8150 H   0  0  0  0  0  0  0  0  0  0  0  0
   -6.8570    4.1210  -22.0760 H   0  0  0  0  0  0  0  0  0  0  0  0
  1  2  1  0  0  0  0
  1 61  1  0  0  0  0
  1 62  1  0  0  0  0
  1 63  1  0  0  0  0
  2  3  1  0  0  0  0
  2 60  1  0  0  0  0
  3  4  2  0  0  0  0
  3  5  1  0  0  0  0
  5  6  1  0  0  0  0
  5 58  1  0  0  0  0
  5 59  1  0  0  0  0
  6  7  1  0  0  0  0
  6 51  1  0  0  0  0
  7  8  1  0  0  0  0
  7 56  1  0  0  0  0
  7 57  1  0  0  0  0
  8  9  1  0  0  0  0
  8 29  1  0  0  0  0
  8 44  1  0  0  0  0
  9 10  2  0  0  0  0
  9 11  1  0  0  0  0
 11 12  1  0  0  0  0
 11 28  1  0  0  0  0
 12 13  2  0  0  0  0
 12 21  1  0  0  0  0
 13 14  1  0  0  0  0
 13 27  1  0  0  0  0
 14 15  2  0  0  0  0
 15 16  1  0  0  0  0
 15 26  1  0  0  0  0
 16 17  1  0  0  0  0
 16 21  2  0  0  0  0
 17 18  2  0  0  0  0
 17 25  1  0  0  0  0
 18 19  1  0  0  0  0
 18 24  1  0  0  0  0
 19 20  2  0  0  0  0
 19 23  1  0  0  0  0
 20 21  1  0  0  0  0
 20 22  1  0  0  0  0
 28 29  1  0  0  0  0
 28 42  1  0  0  0  0
 28 43  1  0  0  0  0
 29 30  1  0  0  0  0
 29 41  1  0  0  0  0
 30 31  1  0  0  0  0
 30 39  1  0  0  0  0
 30 40  1  0  0  0  0
 31 32  1  0  0  0  0
 31 35  1  0  0  0  0
 32 33  2  0  0  0  0
 32 38  1  0  0  0  0
 33 34  1  0  0  0  0
 33 37  1  0  0  0  0
 34 35  2  0  0  0  0
 34 36  1  0  0  0  0
 44 45  1  0  0  0  0
 44 50  2  0  0  0  0
 45 46  2  0  0  0  0
 45 55  1  0  0  0  0
 46 47  1  0  0  0  0
 46 48  1  0  0  0  0
 48 49  2  0  0  0  0
 48 54  1  0  0  0  0
 49 50  1  0  0  0  0
 49 53  1  0  0  0  0
 50 51  1  0  0  0  0
 51 52  2  0  0  0  0
M  END
$$$$
mol16_score_26.4060
  PyMOL2.5          3D                             0

 61 66  0  0  1  0  0  0  0  0999 V2000
  -14.4680   -0.3590  -22.9840 C   0  0  0  0  0  0  0  0  0  0  0  0
  -13.8190   -1.5330  -22.4230 N   0  0  0  0  0  0  0  0  0  0  0  0
  -13.1270   -2.4600  -23.1460 C   0  0  0  0  0  0  0  0  0  0  0  0
  -13.0320   -2.4080  -24.3650 O   0  0  0  0  0  0  0  0  0  0  0  0
  -12.5070   -3.6140  -22.3040 C   0  0  0  0  0  0  0  0  0  0  0  0
  -11.1040   -3.9280  -22.5860 N   0  0  0  0  0  0  0  0  0  0  0  0
  -10.0320   -3.5900  -21.6420 C   0  0  0  0  0  0  0  0  0  0  0  0
   -8.7460   -3.1060  -22.3510 C   0  0  2  0  0  0  0  0  0  0  0  0
   -7.6010   -2.9220  -21.3170 C   0  0  0  0  0  0  0  0  0  0  0  0
   -7.0220   -3.8090  -20.7230 O   0  0  0  0  0  0  0  0  0  0  0  0
   -7.2840   -1.5730  -21.2040 N   0  0  0  0  0  0  0  0  0  0  0  0
   -6.5140   -1.0100  -20.1500 C   0  0  0  0  0  0  0  0  0  0  0  0
   -6.8370   -1.2090  -18.8290 C   0  0  0  0  0  0  0  0  0  0  0  0
   -6.2010   -0.6090  -17.7900 N   0  0  0  0  0  0  0  0  0  0  0  0
   -5.2110    0.2040  -18.0550 C   0  0  0  0  0  0  0  0  0  0  0  0
   -4.7670    0.5010  -19.3740 C   0  0  0  0  0  0  0  0  0  0  0  0
   -3.6760    1.3780  -19.6180 C   0  0  0  0  0  0  0  0  0  0  0  0
   -3.2960    1.6680  -20.8990 C   0  0  0  0  0  0  0  0  0  0  0  0
   -3.9950    1.1030  -21.9890 C   0  0  0  0  0  0  0  0  0  0  0  0
   -5.0460    0.2430  -21.7780 C   0  0  0  0  0  0  0  0  0  0  0  0
   -5.4510   -0.0940  -20.4590 C   0  0  0  0  0  0  0  0  0  0  0  0
   -5.5740   -0.1910  -22.6210 H   0  0  0  0  0  0  0  0  0  0  0  0
   -3.6900    1.3480  -23.0020 H   0  0  0  0  0  0  0  0  0  0  0  0
   -2.4540    2.3270  -21.0910 H   0  0  0  0  0  0  0  0  0  0  0  0
   -3.1540    1.8150  -18.7710 H   0  0  0  0  0  0  0  0  0  0  0  0
   -4.7060    0.6760  -17.2090 H   0  0  0  0  0  0  0  0  0  0  0  0
   -7.6580   -1.8660  -18.5530 H   0  0  0  0  0  0  0  0  0  0  0  0
   -8.2690   -0.7390  -21.8620 C   0  0  0  0  0  0  0  0  0  0  0  0
   -8.8770   -1.6600  -22.9210 C   0  0  2  0  0  0  0  0  0  0  0  0
  -10.2770   -1.1730  -23.3010 C   0  0  0  0  0  0  0  0  0  0  0  0
  -10.1970    0.1460  -23.9060 N   0  0  0  0  0  0  0  0  0  0  0  0
  -10.7480    1.2240  -23.3770 N   0  0  0  0  0  0  0  0  0  0  0  0
  -10.3600    2.1560  -24.2310 C   0  0  0  0  0  0  0  0  0  0  0  0
   -9.5820    1.6610  -25.2190 N   0  0  0  0  0  0  0  0  0  0  0  0
   -9.5030    0.3790  -24.9990 N   0  0  0  0  0  0  0  0  0  0  0  0
  -10.6520    3.1960  -24.1650 H   0  0  0  0  0  0  0  0  0  0  0  0
  -10.8960   -1.0670  -22.4120 H   0  0  0  0  0  0  0  0  0  0  0  0
  -10.7870   -1.8440  -23.9960 H   0  0  0  0  0  0  0  0  0  0  0  0
   -8.2550   -1.6110  -23.8220 H   0  0  0  0  0  0  0  0  0  0  0  0
   -9.0210   -0.3940  -21.1330 H   0  0  0  0  0  0  0  0  0  0  0  0
   -7.8070    0.1490  -22.2990 H   0  0  0  0  0  0  0  0  0  0  0  0
   -8.4030   -4.1330  -23.4200 C   0  0  0  0  0  0  0  0  0  0  0  0
   -7.1010   -4.2080  -23.9310 C   0  0  0  0  0  0  0  0  0  0  0  0
   -6.8030   -5.1050  -24.9420 C   0  0  0  0  0  0  0  0  0  0  0  0
   -5.1930   -5.1670  -25.5890 Cl  0  0  0  0  0  0  0  0  0  0  0  0
   -7.7740   -5.9530  -25.4730 C   0  0  0  0  0  0  0  0  0  0  0  0
   -9.0720   -5.8480  -25.0080 C   0  0  0  0  0  0  0  0  0  0  0  0
   -9.3940   -4.9350  -24.0020 C   0  0  0  0  0  0  0  0  0  0  0  0
  -10.8370   -4.8090  -23.6080 C   0  0  0  0  0  0  0  0  0  0  0  0
  -11.7050   -5.4440  -24.1890 O   0  0  0  0  0  0  0  0  0  0  0  0
   -9.8720   -6.4440  -25.4400 H   0  0  0  0  0  0  0  0  0  0  0  0
   -7.5210   -6.6390  -26.2770 H   0  0  0  0  0  0  0  0  0  0  0  0
   -6.3200   -3.5530  -23.5600 H   0  0  0  0  0  0  0  0  0  0  0  0
  -10.3740   -2.7790  -21.0050 H   0  0  0  0  0  0  0  0  0  0  0  0
   -9.7730   -4.4460  -21.0050 H   0  0  0  0  0  0  0  0  0  0  0  0
  -13.0970   -4.4960  -22.5850 H   0  0  0  0  0  0  0  0  0  0  0  0
  -12.6310   -3.4140  -21.2270 H   0  0  0  0  0  0  0  0  0  0  0  0
  -13.9440   -1.7110  -21.4390 H   0  0  0  0  0  0  0  0  0  0  0  0
  -15.5620   -0.4010  -22.9360 H   0  0  0  0  0  0  0  0  0  0  0  0
  -14.1460    0.5390  -22.4500 H   0  0  0  0  0  0  0  0  0  0  0  0
  -14.1750   -0.2750  -24.0270 H   0  0  0  0  0  0  0  0  0  0  0  0
  1  2  1  0  0  0  0
  1 59  1  0  0  0  0
  1 60  1  0  0  0  0
  1 61  1  0  0  0  0
  2  3  1  0  0  0  0
  2 58  1  0  0  0  0
  3  4  2  0  0  0  0
  3  5  1  0  0  0  0
  5  6  1  0  0  0  0
  5 56  1  0  0  0  0
  5 57  1  0  0  0  0
  6  7  1  0  0  0  0
  6 49  1  0  0  0  0
  7  8  1  0  0  0  0
  7 54  1  0  0  0  0
  7 55  1  0  0  0  0
  8  9  1  0  0  0  0
  8 29  1  0  0  0  0
  8 42  1  0  0  0  0
  9 10  2  0  0  0  0
  9 11  1  0  0  0  0
 11 12  1  0  0  0  0
 11 28  1  0  0  0  0
 12 13  2  0  0  0  0
 12 21  1  0  0  0  0
 13 14  1  0  0  0  0
 13 27  1  0  0  0  0
 14 15  2  0  0  0  0
 15 16  1  0  0  0  0
 15 26  1  0  0  0  0
 16 17  1  0  0  0  0
 16 21  2  0  0  0  0
 17 18  2  0  0  0  0
 17 25  1  0  0  0  0
 18 19  1  0  0  0  0
 18 24  1  0  0  0  0
 19 20  2  0  0  0  0
 19 23  1  0  0  0  0
 20 21  1  0  0  0  0
 20 22  1  0  0  0  0
 28 29  1  0  0  0  0
 28 40  1  0  0  0  0
 28 41  1  0  0  0  0
 29 30  1  0  0  0  0
 29 39  1  0  0  0  0
 30 31  1  0  0  0  0
 30 37  1  0  0  0  0
 30 38  1  0  0  0  0
 31 32  1  0  0  0  0
 31 35  1  0  0  0  0
 32 33  2  0  0  0  0
 33 34  1  0  0  0  0
 33 36  1  0  0  0  0
 34 35  2  0  0  0  0
 42 43  1  0  0  0  0
 42 48  2  0  0  0  0
 43 44  2  0  0  0  0
 43 53  1  0  0  0  0
 44 45  1  0  0  0  0
 44 46  1  0  0  0  0
 46 47  2  0  0  0  0
 46 52  1  0  0  0  0
 47 48  1  0  0  0  0
 47 51  1  0  0  0  0
 48 49  1  0  0  0  0
 49 50  2  0  0  0  0
M  END
$$$$
mol17_score_17.4479
  PyMOL2.5          3D                             0

 38 41  0  0  1  0  0  0  0  0999 V2000
  -10.0930   -5.0130  -24.3150 C   0  0  0  0  0  0  0  0  0  0  0  0
   -9.8090   -3.7200  -23.5580 C   0  0  2  0  0  0  0  0  0  0  0  0
   -9.5580   -2.4920  -24.4310 C   0  0  0  0  0  0  0  0  0  0  0  0
   -9.5910   -1.2400  -23.5500 C   0  0  0  0  0  0  0  0  0  0  0  0
   -8.6690   -1.4490  -22.4390 C   0  0  0  0  0  0  0  0  0  0  0  0
   -8.1780   -0.5390  -21.4500 C   0  0  0  0  0  0  0  0  0  0  0  0
   -8.5770    0.5350  -21.0630 O   0  5  0  0  0  0  0  0  0  0  0  0
   -7.0530   -1.2210  -20.9240 N   0  0  0  0  0  0  0  0  0  0  0  0
   -6.2560   -0.7100  -19.8910 C   0  0  0  0  0  0  0  0  0  0  0  0
   -6.5420   -1.0290  -18.5930 C   0  0  0  0  0  0  0  0  0  0  0  0
   -5.8920   -0.5070  -17.5300 N   0  0  0  0  0  0  0  0  0  0  0  0
   -4.9210    0.3430  -17.7770 C   0  0  0  0  0  0  0  0  0  0  0  0
   -4.5040    0.7300  -19.0900 C   0  0  0  0  0  0  0  0  0  0  0  0
   -3.4280    1.6300  -19.3290 C   0  0  0  0  0  0  0  0  0  0  0  0
   -3.1150    1.9940  -20.6110 C   0  0  0  0  0  0  0  0  0  0  0  0
   -3.8410    1.4850  -21.7130 C   0  0  0  0  0  0  0  0  0  0  0  0
   -4.8690    0.5970  -21.5130 C   0  0  0  0  0  0  0  0  0  0  0  0
   -5.2040    0.1970  -20.1910 C   0  0  0  0  0  0  0  0  0  0  0  0
   -5.4170    0.1920  -22.3590 H   0  0  0  0  0  0  0  0  0  0  0  0
   -3.5910    1.8090  -22.7180 H   0  0  0  0  0  0  0  0  0  0  0  0
   -2.3110    2.7020  -20.7940 H   0  0  0  0  0  0  0  0  0  0  0  0
   -2.8740    2.0330  -18.4840 H   0  0  0  0  0  0  0  0  0  0  0  0
   -4.4340    0.7820  -16.9080 H   0  0  0  0  0  0  0  0  0  0  0  0
   -7.3570   -1.7140  -18.3780 H   0  0  0  0  0  0  0  0  0  0  0  0
   -7.0310   -2.5530  -21.3290 C   0  0  0  0  0  0  0  0  0  0  0  0
   -6.3040   -3.4390  -20.9530 O   0  0  0  0  0  0  0  0  0  0  0  0
   -8.0650   -2.6420  -22.2340 N   0  0  0  0  0  0  0  0  0  0  0  0
   -8.5680   -3.9250  -22.6910 C   0  0  0  0  0  0  0  0  0  0  0  0
   -8.7980   -4.5470  -21.8250 H   0  0  0  0  0  0  0  0  0  0  0  0
   -7.7940   -4.4330  -23.2750 H   0  0  0  0  0  0  0  0  0  0  0  0
   -9.3420   -0.3360  -24.1150 H   0  0  0  0  0  0  0  0  0  0  0  0
  -10.5960   -1.0550  -23.1510 H   0  0  0  0  0  0  0  0  0  0  0  0
   -8.5760   -2.5960  -24.9110 H   0  0  0  0  0  0  0  0  0  0  0  0
  -10.2730   -2.3750  -25.2360 H   0  0  0  0  0  0  0  0  0  0  0  0
  -10.6780   -3.5120  -22.9240 H   0  0  0  0  0  0  0  0  0  0  0  0
  -11.1140   -5.1060  -24.6920 H   0  0  0  0  0  0  0  0  0  0  0  0
   -9.9550   -5.8710  -23.6550 H   0  0  0  0  0  0  0  0  0  0  0  0
   -9.4030   -5.1180  -25.1560 H   0  0  0  0  0  0  0  0  0  0  0  0
  1  2  1  0  0  0  0
  1 36  1  0  0  0  0
  1 37  1  0  0  0  0
  1 38  1  0  0  0  0
  2  3  1  0  0  0  0
  2 28  1  0  0  0  0
  2 35  1  0  0  0  0
  3  4  1  0  0  0  0
  3 33  1  0  0  0  0
  3 34  1  0  0  0  0
  4  5  1  0  0  0  0
  4 31  1  0  0  0  0
  4 32  1  0  0  0  0
  5  6  2  0  0  0  0
  5 27  1  0  0  0  0
  6  7  1  0  0  0  0
  6  8  1  0  0  0  0
  8  9  1  0  0  0  0
  8 25  1  0  0  0  0
  9 10  2  0  0  0  0
  9 18  1  0  0  0  0
 10 11  1  0  0  0  0
 10 24  1  0  0  0  0
 11 12  2  0  0  0  0
 12 13  1  0  0  0  0
 12 23  1  0  0  0  0
 13 14  1  0  0  0  0
 13 18  2  0  0  0  0
 14 15  2  0  0  0  0
 14 22  1  0  0  0  0
 15 16  1  0  0  0  0
 15 21  1  0  0  0  0
 16 17  2  0  0  0  0
 16 20  1  0  0  0  0
 17 18  1  0  0  0  0
 17 19  1  0  0  0  0
 25 26  2  0  0  0  0
 25 27  1  0  0  0  0
 27 28  1  0  0  0  0
 28 29  1  0  0  0  0
 28 30  1  0  0  0  0
M  END
$$$$
mol18_score_25.6057
  PyMOL2.5          3D                             0

 56 61  0  0  1  0  0  0  0  0999 V2000
  -10.4200   -0.9850  -23.4080 C   0  0  0  0  0  0  0  0  0  0  0  0
   -9.0060   -1.4020  -23.0200 C   0  0  1  0  0  0  0  0  0  0  0  0
   -8.3840   -0.5070  -21.9360 C   0  0  0  0  0  0  0  0  0  0  0  0
   -7.4090   -1.3850  -21.3000 N   0  0  0  0  0  0  0  0  0  0  0  0
   -6.5680   -0.9760  -20.2400 C   0  0  0  0  0  0  0  0  0  0  0  0
   -6.8530   -1.3310  -18.9470 C   0  0  0  0  0  0  0  0  0  0  0  0
   -6.1040   -0.9650  -17.8790 N   0  0  0  0  0  0  0  0  0  0  0  0
   -5.0600   -0.2040  -18.1010 C   0  0  0  0  0  0  0  0  0  0  0  0
   -4.6790    0.2740  -19.3880 C   0  0  0  0  0  0  0  0  0  0  0  0
   -3.5850    1.1600  -19.5800 C   0  0  0  0  0  0  0  0  0  0  0  0
   -3.2360    1.5610  -20.8400 C   0  0  0  0  0  0  0  0  0  0  0  0
   -3.9470    1.0840  -21.9660 C   0  0  0  0  0  0  0  0  0  0  0  0
   -5.0220    0.2460  -21.8030 C   0  0  0  0  0  0  0  0  0  0  0  0
   -5.4330   -0.1490  -20.5040 C   0  0  0  0  0  0  0  0  0  0  0  0
   -5.5680   -0.1300  -22.6630 H   0  0  0  0  0  0  0  0  0  0  0  0
   -3.6380    1.3850  -22.9620 H   0  0  0  0  0  0  0  0  0  0  0  0
   -2.4040    2.2440  -20.9880 H   0  0  0  0  0  0  0  0  0  0  0  0
   -3.0520    1.5180  -18.7020 H   0  0  0  0  0  0  0  0  0  0  0  0
   -4.4490    0.0580  -17.2370 H   0  0  0  0  0  0  0  0  0  0  0  0
   -7.7250   -1.9460  -18.7270 H   0  0  0  0  0  0  0  0  0  0  0  0
   -7.7020   -2.7210  -21.4710 C   0  0  0  0  0  0  0  0  0  0  0  0
   -7.1200   -3.6290  -20.9090 O   0  0  0  0  0  0  0  0  0  0  0  0
   -8.8590   -2.8610  -22.4610 C   0  0  1  0  0  0  0  0  0  0  0  0
  -10.0850   -3.3100  -21.6280 C   0  0  0  0  0  0  0  0  0  0  0  0
  -11.1830   -3.8030  -22.4400 N   0  0  0  0  0  0  0  0  0  0  0  0
  -12.5520   -3.7160  -21.9540 C   0  0  0  0  0  0  0  0  0  0  0  0
  -13.3640   -2.5830  -22.4940 C   0  0  0  0  0  0  0  0  0  0  0  0
  -13.9970   -2.4790  -23.7560 C   0  0  0  0  0  0  0  0  0  0  0  0
  -14.7110   -1.3100  -23.6790 C   0  0  0  0  0  0  0  0  0  0  0  0
  -14.4850   -0.8010  -22.4450 N   0  0  0  0  0  0  0  0  0  0  0  0
  -13.6610   -1.5550  -21.7090 N   0  0  0  0  0  0  0  0  0  0  0  0
  -14.8910    0.0010  -22.0000 H   0  0  0  0  0  0  0  0  0  0  0  0
  -15.3320   -0.8130  -24.4000 H   0  0  0  0  0  0  0  0  0  0  0  0
  -13.9640   -3.1800  -24.5810 H   0  0  0  0  0  0  0  0  0  0  0  0
  -13.0450   -4.6380  -22.2740 H   0  0  0  0  0  0  0  0  0  0  0  0
  -12.5350   -3.6310  -20.8630 H   0  0  0  0  0  0  0  0  0  0  0  0
  -10.9990   -4.4830  -23.6130 C   0  0  0  0  0  0  0  0  0  0  0  0
  -11.9480   -4.8540  -24.2940 O   0  0  0  0  0  0  0  0  0  0  0  0
   -9.5820   -4.7150  -24.0280 C   0  0  0  0  0  0  0  0  0  0  0  0
   -9.3000   -5.7330  -24.9420 C   0  0  0  0  0  0  0  0  0  0  0  0
   -8.0160   -5.9310  -25.4160 C   0  0  0  0  0  0  0  0  0  0  0  0
   -7.0190   -5.0790  -24.9550 C   0  0  0  0  0  0  0  0  0  0  0  0
   -5.7710   -5.2350  -25.4270 F   0  0  0  0  0  0  0  0  0  0  0  0
   -7.2570   -4.0990  -24.0090 C   0  0  0  0  0  0  0  0  0  0  0  0
   -8.5570   -3.9130  -23.5150 C   0  0  0  0  0  0  0  0  0  0  0  0
   -6.4190   -3.5330  -23.6180 H   0  0  0  0  0  0  0  0  0  0  0  0
   -7.7700   -6.7350  -26.1050 H   0  0  0  0  0  0  0  0  0  0  0  0
  -10.1110   -6.3790  -25.2680 H   0  0  0  0  0  0  0  0  0  0  0  0
   -9.7480   -4.0760  -20.9210 H   0  0  0  0  0  0  0  0  0  0  0  0
  -10.4580   -2.4640  -21.0370 H   0  0  0  0  0  0  0  0  0  0  0  0
   -9.1400   -0.1610  -21.2120 H   0  0  0  0  0  0  0  0  0  0  0  0
   -7.9040    0.3840  -22.3490 H   0  0  0  0  0  0  0  0  0  0  0  0
   -8.3570   -1.3630  -23.9040 H   0  0  0  0  0  0  0  0  0  0  0  0
  -10.8610   -1.7160  -24.0910 H   0  0  0  0  0  0  0  0  0  0  0  0
  -11.0700   -0.9230  -22.5300 H   0  0  0  0  0  0  0  0  0  0  0  0
  -10.4320   -0.0080  -23.8980 H   0  0  0  0  0  0  0  0  0  0  0  0
  1  2  1  0  0  0  0
  1 54  1  0  0  0  0
  1 55  1  0  0  0  0
  1 56  1  0  0  0  0
  2  3  1  0  0  0  0
  2 23  1  0  0  0  0
  2 53  1  0  0  0  0
  3  4  1  0  0  0  0
  3 51  1  0  0  0  0
  3 52  1  0  0  0  0
  4  5  1  0  0  0  0
  4 21  1  0  0  0  0
  5  6  2  0  0  0  0
  5 14  1  0  0  0  0
  6  7  1  0  0  0  0
  6 20  1  0  0  0  0
  7  8  2  0  0  0  0
  8  9  1  0  0  0  0
  8 19  1  0  0  0  0
  9 10  1  0  0  0  0
  9 14  2  0  0  0  0
 10 11  2  0  0  0  0
 10 18  1  0  0  0  0
 11 12  1  0  0  0  0
 11 17  1  0  0  0  0
 12 13  2  0  0  0  0
 12 16  1  0  0  0  0
 13 14  1  0  0  0  0
 13 15  1  0  0  0  0
 21 22  2  0  0  0  0
 21 23  1  0  0  0  0
 23 24  1  0  0  0  0
 23 45  1  0  0  0  0
 24 25  1  0  0  0  0
 24 49  1  0  0  0  0
 24 50  1  0  0  0  0
 25 26  1  0  0  0  0
 25 37  1  0  0  0  0
 26 27  1  0  0  0  0
 26 35  1  0  0  0  0
 26 36  1  0  0  0  0
 27 28  1  0  0  0  0
 27 31  2  0  0  0  0
 28 29  2  0  0  0  0
 28 34  1  0  0  0  0
 29 30  1  0  0  0  0
 29 33  1  0  0  0  0
 30 31  1  0  0  0  0
 30 32  1  0  0  0  0
 37 38  2  0  0  0  0
 37 39  1  0  0  0  0
 39 40  2  0  0  0  0
 39 45  1  0  0  0  0
 40 41  1  0  0  0  0
 40 48  1  0  0  0  0
 41 42  2  0  0  0  0
 41 47  1  0  0  0  0
 42 43  1  0  0  0  0
 42 44  1  0  0  0  0
 44 45  2  0  0  0  0
 44 46  1  0  0  0  0
M  END
$$$$
mol19_score_18.9606
  PyMOL2.5          3D                             0

 42 45  0  0  1  0  0  0  0  0999 V2000
   -9.1470   -0.0650  -20.7250 O   0  0  0  0  0  0  0  0  0  0  0  0
   -8.6540   -0.9060  -21.4510 C   0  0  0  0  0  0  0  0  0  0  0  0
   -9.3670   -1.5020  -22.6780 C   0  0  1  0  0  0  0  0  0  0  0  0
  -10.4390   -0.5580  -23.1890 C   0  0  0  0  0  0  0  0  0  0  0  0
  -10.1010    0.7530  -23.5140 C   0  0  0  0  0  0  0  0  0  0  0  0
  -11.0720    1.6260  -23.9720 C   0  0  0  0  0  0  0  0  0  0  0  0
  -12.4000    1.2390  -24.0860 C   0  0  0  0  0  0  0  0  0  0  0  0
  -13.5500    2.5020  -24.3730 Cl  0  0  0  0  0  0  0  0  0  0  0  0
  -12.7280   -0.1000  -23.8640 C   0  0  0  0  0  0  0  0  0  0  0  0
  -14.3300   -0.6930  -24.1140 Cl  0  0  0  0  0  0  0  0  0  0  0  0
  -11.7480   -0.9860  -23.4060 C   0  0  0  0  0  0  0  0  0  0  0  0
  -12.0450   -2.0130  -23.1870 H   0  0  0  0  0  0  0  0  0  0  0  0
  -10.8320    2.6510  -24.2100 H   0  0  0  0  0  0  0  0  0  0  0  0
   -9.0890    1.1200  -23.3420 H   0  0  0  0  0  0  0  0  0  0  0  0
   -8.3340   -1.7860  -23.7770 C   0  0  0  0  0  0  0  0  0  0  0  0
   -7.2410   -2.7550  -23.3390 C   0  0  2  0  0  0  0  0  0  0  0  0
   -7.5400   -4.1050  -23.6620 O   0  0  0  0  0  0  0  0  0  0  0  0
   -8.3920   -4.3240  -23.2620 H   0  0  0  0  0  0  0  0  0  0  0  0
   -6.9330   -2.6360  -21.8360 C   0  0  0  0  0  0  0  0  0  0  0  0
   -7.3750   -1.3770  -21.2540 N   0  0  0  0  0  0  0  0  0  0  0  0
   -6.6090   -0.8070  -20.1920 C   0  0  0  0  0  0  0  0  0  0  0  0
   -6.9080   -1.0560  -18.8780 C   0  0  0  0  0  0  0  0  0  0  0  0
   -6.1990   -0.5690  -17.8280 N   0  0  0  0  0  0  0  0  0  0  0  0
   -5.1680    0.2000  -18.0790 C   0  0  0  0  0  0  0  0  0  0  0  0
   -4.7310    0.5320  -19.3920 C   0  0  0  0  0  0  0  0  0  0  0  0
   -3.6030    1.3640  -19.6310 C   0  0  0  0  0  0  0  0  0  0  0  0
   -3.2290    1.6700  -20.9110 C   0  0  0  0  0  0  0  0  0  0  0  0
   -3.9730    1.1670  -22.0000 C   0  0  0  0  0  0  0  0  0  0  0  0
   -5.0560    0.3500  -21.7920 C   0  0  0  0  0  0  0  0  0  0  0  0
   -5.4680    0.0140  -20.4800 C   0  0  0  0  0  0  0  0  0  0  0  0
   -5.5880   -0.0830  -22.6320 H   0  0  0  0  0  0  0  0  0  0  0  0
   -3.6480    1.3710  -23.0150 H   0  0  0  0  0  0  0  0  0  0  0  0
   -2.3590    2.2910  -21.1020 H   0  0  0  0  0  0  0  0  0  0  0  0
   -3.0610    1.7630  -18.7770 H   0  0  0  0  0  0  0  0  0  0  0  0
   -4.6250    0.6100  -17.2250 H   0  0  0  0  0  0  0  0  0  0  0  0
   -7.7580   -1.6730  -18.5980 H   0  0  0  0  0  0  0  0  0  0  0  0
   -7.3910   -3.5100  -21.3390 H   0  0  0  0  0  0  0  0  0  0  0  0
   -5.8580   -2.6940  -21.6670 H   0  0  0  0  0  0  0  0  0  0  0  0
   -6.3400   -2.5450  -23.9210 H   0  0  0  0  0  0  0  0  0  0  0  0
   -7.8960   -0.8280  -24.0870 H   0  0  0  0  0  0  0  0  0  0  0  0
   -8.8250   -2.2060  -24.6600 H   0  0  0  0  0  0  0  0  0  0  0  0
   -9.8460   -2.4440  -22.3760 H   0  0  0  0  0  0  0  0  0  0  0  0
  1  2  2  0  0  0  0
  2  3  1  0  0  0  0
  2 20  1  0  0  0  0
  3  4  1  0  0  0  0
  3 15  1  0  0  0  0
  3 42  1  0  0  0  0
  4  5  2  0  0  0  0
  4 11  1  0  0  0  0
  5  6  1  0  0  0  0
  5 14  1  0  0  0  0
  6  7  2  0  0  0  0
  6 13  1  0  0  0  0
  7  8  1  0  0  0  0
  7  9  1  0  0  0  0
  9 10  1  0  0  0  0
  9 11  2  0  0  0  0
 11 12  1  0  0  0  0
 15 16  1  0  0  0  0
 15 40  1  0  0  0  0
 15 41  1  0  0  0  0
 16 17  1  0  0  0  0
 16 19  1  0  0  0  0
 16 39  1  0  0  0  0
 17 18  1  0  0  0  0
 19 20  1  0  0  0  0
 19 37  1  0  0  0  0
 19 38  1  0  0  0  0
 20 21  1  0  0  0  0
 21 22  2  0  0  0  0
 21 30  1  0  0  0  0
 22 23  1  0  0  0  0
 22 36  1  0  0  0  0
 23 24  2  0  0  0  0
 24 25  1  0  0  0  0
 24 35  1  0  0  0  0
 25 26  1  0  0  0  0
 25 30  2  0  0  0  0
 26 27  2  0  0  0  0
 26 34  1  0  0  0  0
 27 28  1  0  0  0  0
 27 33  1  0  0  0  0
 28 29  2  0  0  0  0
 28 32  1  0  0  0  0
 29 30  1  0  0  0  0
 29 31  1  0  0  0  0
M  END
$$$$
mol20_score_25.4905
  PyMOL2.5          3D                             0

 66 71  0  0  1  0  0  0  0  0999 V2000
   -7.4410    3.3390  -21.7310 C   0  0  0  0  0  0  0  0  0  0  0  0
   -8.3390    2.8990  -22.7800 N   0  0  0  0  0  0  0  0  0  0  0  0
   -7.7870    2.2140  -23.8090 C   0  0  0  0  0  0  0  0  0  0  0  0
   -6.5740    2.1160  -23.9450 O   0  0  0  0  0  0  0  0  0  0  0  0
   -8.7370    1.5900  -24.8280 C   0  0  0  0  0  0  0  0  0  0  0  0
   -9.4440    0.4270  -24.3380 N   0  0  0  0  0  0  0  0  0  0  0  0
   -8.7030   -0.8110  -24.1980 C   0  0  0  0  0  0  0  0  0  0  0  0
   -9.0660   -1.5380  -22.8850 C   0  0  2  0  0  0  0  0  0  0  0  0
   -8.5270   -0.7510  -21.6620 C   0  0  0  0  0  0  0  0  0  0  0  0
   -9.0010    0.2560  -21.1680 O   0  0  0  0  0  0  0  0  0  0  0  0
   -7.3960   -1.3820  -21.2030 N   0  0  0  0  0  0  0  0  0  0  0  0
   -6.6010   -0.8120  -20.1740 C   0  0  0  0  0  0  0  0  0  0  0  0
   -6.9090   -1.0440  -18.8580 C   0  0  0  0  0  0  0  0  0  0  0  0
   -6.2030   -0.5490  -17.8140 N   0  0  0  0  0  0  0  0  0  0  0  0
   -5.1670    0.2070  -18.0790 C   0  0  0  0  0  0  0  0  0  0  0  0
   -4.7320    0.5320  -19.3950 C   0  0  0  0  0  0  0  0  0  0  0  0
   -3.6090    1.3700  -19.6390 C   0  0  0  0  0  0  0  0  0  0  0  0
   -3.2300    1.6670  -20.9190 C   0  0  0  0  0  0  0  0  0  0  0  0
   -3.9540    1.1410  -22.0130 C   0  0  0  0  0  0  0  0  0  0  0  0
   -5.0420    0.3280  -21.8030 C   0  0  0  0  0  0  0  0  0  0  0  0
   -5.4660    0.0030  -20.4850 C   0  0  0  0  0  0  0  0  0  0  0  0
   -5.6000   -0.0580  -22.6510 H   0  0  0  0  0  0  0  0  0  0  0  0
   -3.6540    1.3830  -23.0260 H   0  0  0  0  0  0  0  0  0  0  0  0
   -2.3710    2.3070  -21.1020 H   0  0  0  0  0  0  0  0  0  0  0  0
   -3.0710    1.7710  -18.7840 H   0  0  0  0  0  0  0  0  0  0  0  0
   -4.6160    0.6090  -17.2280 H   0  0  0  0  0  0  0  0  0  0  0  0
   -7.7620   -1.6670  -18.6010 H   0  0  0  0  0  0  0  0  0  0  0  0
   -7.0480   -2.5850  -21.9340 C   0  0  0  0  0  0  0  0  0  0  0  0
   -8.3160   -2.9000  -22.7480 C   0  0  2  0  0  0  0  0  0  0  0  0
   -8.0210   -3.6760  -24.0480 C   0  0  0  0  0  0  0  0  0  0  0  0
   -7.4640   -5.0600  -23.7890 C   0  0  0  0  0  0  0  0  0  0  0  0
   -6.0870   -5.3050  -23.7770 C   0  0  0  0  0  0  0  0  0  0  0  0
   -5.5860   -6.5750  -23.4970 C   0  0  0  0  0  0  0  0  0  0  0  0
   -6.4590   -7.6250  -23.2230 C   0  0  0  0  0  0  0  0  0  0  0  0
   -7.8320   -7.3990  -23.2460 C   0  0  0  0  0  0  0  0  0  0  0  0
   -8.3270   -6.1250  -23.5160 C   0  0  0  0  0  0  0  0  0  0  0  0
   -9.4020   -5.9390  -23.5130 H   0  0  0  0  0  0  0  0  0  0  0  0
   -8.5150   -8.2240  -23.0510 H   0  0  0  0  0  0  0  0  0  0  0  0
   -6.0740   -8.6160  -22.9920 H   0  0  0  0  0  0  0  0  0  0  0  0
   -4.5120   -6.7500  -23.4940 H   0  0  0  0  0  0  0  0  0  0  0  0
   -5.3980   -4.4880  -23.9910 H   0  0  0  0  0  0  0  0  0  0  0  0
   -8.9470   -3.7590  -24.6360 H   0  0  0  0  0  0  0  0  0  0  0  0
   -7.3060   -3.1050  -24.6560 H   0  0  0  0  0  0  0  0  0  0  0  0
   -8.9560   -3.5410  -22.1360 H   0  0  0  0  0  0  0  0  0  0  0  0
   -6.7810   -3.3990  -21.2500 H   0  0  0  0  0  0  0  0  0  0  0  0
   -6.1840   -2.4130  -22.5940 H   0  0  0  0  0  0  0  0  0  0  0  0
  -10.5770   -1.6190  -22.8120 C   0  0  0  0  0  0  0  0  0  0  0  0
  -11.1690   -2.5210  -21.9290 C   0  0  0  0  0  0  0  0  0  0  0  0
  -12.5390   -2.5440  -21.7660 C   0  0  0  0  0  0  0  0  0  0  0  0
  -13.1690   -3.5620  -20.5030 Cl  0  0  0  0  0  0  0  0  0  0  0  0
  -13.3740   -1.7160  -22.5180 C   0  0  0  0  0  0  0  0  0  0  0  0
  -12.7920   -0.7830  -23.3570 C   0  0  0  0  0  0  0  0  0  0  0  0
  -11.4040   -0.7010  -23.4720 C   0  0  0  0  0  0  0  0  0  0  0  0
  -10.8110    0.4500  -24.2260 C   0  0  0  0  0  0  0  0  0  0  0  0
  -11.5000    1.3580  -24.6700 O   0  0  0  0  0  0  0  0  0  0  0  0
  -13.3860   -0.0630  -23.9100 H   0  0  0  0  0  0  0  0  0  0  0  0
  -14.4510   -1.7830  -22.4210 H   0  0  0  0  0  0  0  0  0  0  0  0
  -10.5710   -3.1840  -21.3170 H   0  0  0  0  0  0  0  0  0  0  0  0
   -7.6370   -0.5580  -24.2000 H   0  0  0  0  0  0  0  0  0  0  0  0
   -8.9230   -1.4860  -25.0410 H   0  0  0  0  0  0  0  0  0  0  0  0
   -8.1130    1.3310  -25.6940 H   0  0  0  0  0  0  0  0  0  0  0  0
   -9.5140    2.2950  -25.1170 H   0  0  0  0  0  0  0  0  0  0  0  0
   -9.3240    2.7900  -22.5940 H   0  0  0  0  0  0  0  0  0  0  0  0
   -8.0110    3.7320  -20.8950 H   0  0  0  0  0  0  0  0  0  0  0  0
   -6.7740    4.1180  -22.1080 H   0  0  0  0  0  0  0  0  0  0  0  0
   -6.8210    2.4960  -21.4020 H   0  0  0  0  0  0  0  0  0  0  0  0
  1  2  1  0  0  0  0
  1 64  1  0  0  0  0
  1 65  1  0  0  0  0
  1 66  1  0  0  0  0
  2  3  1  0  0  0  0
  2 63  1  0  0  0  0
  3  4  2  0  0  0  0
  3  5  1  0  0  0  0
  5  6  1  0  0  0  0
  5 61  1  0  0  0  0
  5 62  1  0  0  0  0
  6  7  1  0  0  0  0
  6 54  1  0  0  0  0
  7  8  1  0  0  0  0
  7 59  1  0  0  0  0
  7 60  1  0  0  0  0
  8  9  1  0  0  0  0
  8 29  1  0  0  0  0
  8 47  1  0  0  0  0
  9 10  2  0  0  0  0
  9 11  1  0  0  0  0
 11 12  1  0  0  0  0
 11 28  1  0  0  0  0
 12 13  2  0  0  0  0
 12 21  1  0  0  0  0
 13 14  1  0  0  0  0
 13 27  1  0  0  0  0
 14 15  2  0  0  0  0
 15 16  1  0  0  0  0
 15 26  1  0  0  0  0
 16 17  1  0  0  0  0
 16 21  2  0  0  0  0
 17 18  2  0  0  0  0
 17 25  1  0  0  0  0
 18 19  1  0  0  0  0
 18 24  1  0  0  0  0
 19 20  2  0  0  0  0
 19 23  1  0  0  0  0
 20 21  1  0  0  0  0
 20 22  1  0  0  0  0
 28 29  1  0  0  0  0
 28 45  1  0  0  0  0
 28 46  1  0  0  0  0
 29 30  1  0  0  0  0
 29 44  1  0  0  0  0
 30 31  1  0  0  0  0
 30 42  1  0  0  0  0
 30 43  1  0  0  0  0
 31 32  2  0  0  0  0
 31 36  1  0  0  0  0
 32 33  1  0  0  0  0
 32 41  1  0  0  0  0
 33 34  2  0  0  0  0
 33 40  1  0  0  0  0
 34 35  1  0  0  0  0
 34 39  1  0  0  0  0
 35 36  2  0  0  0  0
 35 38  1  0  0  0  0
 36 37  1  0  0  0  0
 47 48  1  0  0  0  0
 47 53  2  0  0  0  0
 48 49  2  0  0  0  0
 48 58  1  0  0  0  0
 49 50  1  0  0  0  0
 49 51  1  0  0  0  0
 51 52  2  0  0  0  0
 51 57  1  0  0  0  0
 52 53  1  0  0  0  0
 52 56  1  0  0  0  0
 53 54  1  0  0  0  0
 54 55  2  0  0  0  0
M  END
$$$$
mol23_score_26.8090
  PyMOL2.5          3D                             0

 68 73  0  0  1  0  0  0  0  0999 V2000
  -14.4010   -1.1740  -24.2610 C   0  0  0  0  0  0  0  0  0  0  0  0
  -13.7170   -2.3770  -23.8340 N   0  0  0  0  0  0  0  0  0  0  0  0
  -13.1610   -2.4070  -22.6010 C   0  0  0  0  0  0  0  0  0  0  0  0
  -13.1330   -1.3970  -21.9120 O   0  0  0  0  0  0  0  0  0  0  0  0
  -12.5400   -3.7330  -22.1490 C   0  0  0  0  0  0  0  0  0  0  0  0
  -11.1650   -3.8770  -22.5920 N   0  0  0  0  0  0  0  0  0  0  0  0
  -10.1020   -3.3800  -21.7220 C   0  0  0  0  0  0  0  0  0  0  0  0
   -8.8340   -2.9400  -22.4930 C   0  0  2  0  0  0  0  0  0  0  0  0
   -7.7030   -2.7540  -21.4590 C   0  0  0  0  0  0  0  0  0  0  0  0
   -7.1120   -3.6310  -20.8620 O   0  0  0  0  0  0  0  0  0  0  0  0
   -7.4570   -1.4020  -21.2980 N   0  0  0  0  0  0  0  0  0  0  0  0
   -6.6430   -0.9150  -20.2410 C   0  0  0  0  0  0  0  0  0  0  0  0
   -6.9100   -1.2220  -18.9280 C   0  0  0  0  0  0  0  0  0  0  0  0
   -6.2450   -0.6920  -17.8690 N   0  0  0  0  0  0  0  0  0  0  0  0
   -5.2650    0.1410  -18.1090 C   0  0  0  0  0  0  0  0  0  0  0  0
   -4.8420    0.5020  -19.4190 C   0  0  0  0  0  0  0  0  0  0  0  0
   -3.7400    1.3730  -19.6290 C   0  0  0  0  0  0  0  0  0  0  0  0
   -3.3350    1.6670  -20.9010 C   0  0  0  0  0  0  0  0  0  0  0  0
   -4.0070    1.1100  -22.0120 C   0  0  0  0  0  0  0  0  0  0  0  0
   -5.0820    0.2720  -21.8310 C   0  0  0  0  0  0  0  0  0  0  0  0
   -5.5380   -0.0430  -20.5230 C   0  0  0  0  0  0  0  0  0  0  0  0
   -5.5840   -0.1680  -22.6850 H   0  0  0  0  0  0  0  0  0  0  0  0
   -3.6630    1.3420  -23.0150 H   0  0  0  0  0  0  0  0  0  0  0  0
   -2.4870    2.3250  -21.0670 H   0  0  0  0  0  0  0  0  0  0  0  0
   -3.2300    1.7870  -18.7610 H   0  0  0  0  0  0  0  0  0  0  0  0
   -4.7410    0.5670  -17.2490 H   0  0  0  0  0  0  0  0  0  0  0  0
   -7.7020   -1.9220  -18.6730 H   0  0  0  0  0  0  0  0  0  0  0  0
   -8.4210   -0.5660  -22.0070 C   0  0  0  0  0  0  0  0  0  0  0  0
   -8.9340   -1.5030  -23.1090 C   0  0  2  0  0  0  0  0  0  0  0  0
  -10.3080   -1.1020  -23.6760 C   0  0  0  0  0  0  0  0  0  0  0  0
  -10.2910    0.1180  -24.4570 N   0  0  0  0  0  0  0  0  0  0  0  0
  -10.5340    1.3750  -23.9210 C   0  0  0  0  0  0  0  0  0  0  0  0
  -11.5290    1.5750  -22.9500 C   0  0  0  0  0  0  0  0  0  0  0  0
  -11.7840    2.8580  -22.4730 C   0  0  0  0  0  0  0  0  0  0  0  0
  -11.0720    3.9520  -22.9520 C   0  0  0  0  0  0  0  0  0  0  0  0
  -10.0940    3.7570  -23.9220 C   0  0  0  0  0  0  0  0  0  0  0  0
   -9.8170    2.4840  -24.3960 C   0  0  0  0  0  0  0  0  0  0  0  0
   -9.0470    2.3330  -25.1510 H   0  0  0  0  0  0  0  0  0  0  0  0
   -9.5210    4.6020  -24.2960 H   0  0  0  0  0  0  0  0  0  0  0  0
  -11.2790    4.9470  -22.5690 H   0  0  0  0  0  0  0  0  0  0  0  0
  -12.5320    3.0060  -21.6930 H   0  0  0  0  0  0  0  0  0  0  0  0
  -12.0980    0.7290  -22.5640 H   0  0  0  0  0  0  0  0  0  0  0  0
   -9.6790    0.1080  -25.2570 H   0  0  0  0  0  0  0  0  0  0  0  0
  -11.0270   -0.9820  -22.8620 H   0  0  0  0  0  0  0  0  0  0  0  0
  -10.6650   -1.9110  -24.3240 H   0  0  0  0  0  0  0  0  0  0  0  0
   -8.2150   -1.4830  -23.9420 H   0  0  0  0  0  0  0  0  0  0  0  0
   -7.9560    0.3490  -22.3870 H   0  0  0  0  0  0  0  0  0  0  0  0
   -9.2380   -0.2580  -21.3320 H   0  0  0  0  0  0  0  0  0  0  0  0
   -8.5020   -4.0030  -23.5220 C   0  0  0  0  0  0  0  0  0  0  0  0
   -7.1820   -4.1660  -23.9640 C   0  0  0  0  0  0  0  0  0  0  0  0
   -6.8810   -5.1520  -24.8900 C   0  0  0  0  0  0  0  0  0  0  0  0
   -5.2260   -5.3970  -25.3750 Cl  0  0  0  0  0  0  0  0  0  0  0  0
   -7.8820   -5.9400  -25.4620 C   0  0  0  0  0  0  0  0  0  0  0  0
   -9.1950   -5.7310  -25.0770 C   0  0  0  0  0  0  0  0  0  0  0  0
   -9.5080   -4.7870  -24.1000 C   0  0  0  0  0  0  0  0  0  0  0  0
  -10.9430   -4.5800  -23.7400 C   0  0  0  0  0  0  0  0  0  0  0  0
  -11.8630   -4.9860  -24.4520 O   0  0  0  0  0  0  0  0  0  0  0  0
  -10.0120   -6.2820  -25.5350 H   0  0  0  0  0  0  0  0  0  0  0  0
   -7.6330   -6.6900  -26.2090 H   0  0  0  0  0  0  0  0  0  0  0  0
   -6.3930   -3.5170  -23.5930 H   0  0  0  0  0  0  0  0  0  0  0  0
   -9.8120   -4.1330  -20.9790 H   0  0  0  0  0  0  0  0  0  0  0  0
  -10.5000   -2.5270  -21.1620 H   0  0  0  0  0  0  0  0  0  0  0  0
  -12.5440   -3.7730  -21.0580 H   0  0  0  0  0  0  0  0  0  0  0  0
  -13.1040   -4.5770  -22.5510 H   0  0  0  0  0  0  0  0  0  0  0  0
  -13.6090   -3.1530  -24.4630 H   0  0  0  0  0  0  0  0  0  0  0  0
  -13.7510   -0.3020  -24.1340 H   0  0  0  0  0  0  0  0  0  0  0  0
  -15.2890   -0.9780  -23.6550 H   0  0  0  0  0  0  0  0  0  0  0  0
  -14.6980   -1.2770  -25.3050 H   0  0  0  0  0  0  0  0  0  0  0  0
  1  2  1  0  0  0  0
  1 66  1  0  0  0  0
  1 67  1  0  0  0  0
  1 68  1  0  0  0  0
  2  3  1  0  0  0  0
  2 65  1  0  0  0  0
  3  4  2  0  0  0  0
  3  5  1  0  0  0  0
  5  6  1  0  0  0  0
  5 63  1  0  0  0  0
  5 64  1  0  0  0  0
  6  7  1  0  0  0  0
  6 56  1  0  0  0  0
  7  8  1  0  0  0  0
  7 61  1  0  0  0  0
  7 62  1  0  0  0  0
  8  9  1  0  0  0  0
  8 29  1  0  0  0  0
  8 49  1  0  0  0  0
  9 10  2  0  0  0  0
  9 11  1  0  0  0  0
 11 12  1  0  0  0  0
 11 28  1  0  0  0  0
 12 13  2  0  0  0  0
 12 21  1  0  0  0  0
 13 14  1  0  0  0  0
 13 27  1  0  0  0  0
 14 15  2  0  0  0  0
 15 16  1  0  0  0  0
 15 26  1  0  0  0  0
 16 17  1  0  0  0  0
 16 21  2  0  0  0  0
 17 18  2  0  0  0  0
 17 25  1  0  0  0  0
 18 19  1  0  0  0  0
 18 24  1  0  0  0  0
 19 20  2  0  0  0  0
 19 23  1  0  0  0  0
 20 21  1  0  0  0  0
 20 22  1  0  0  0  0
 28 29  1  0  0  0  0
 28 47  1  0  0  0  0
 28 48  1  0  0  0  0
 29 30  1  0  0  0  0
 29 46  1  0  0  0  0
 30 31  1  0  0  0  0
 30 44  1  0  0  0  0
 30 45  1  0  0  0  0
 31 32  1  0  0  0  0
 31 43  1  0  0  0  0
 32 33  2  0  0  0  0
 32 37  1  0  0  0  0
 33 34  1  0  0  0  0
 33 42  1  0  0  0  0
 34 35  2  0  0  0  0
 34 41  1  0  0  0  0
 35 36  1  0  0  0  0
 35 40  1  0  0  0  0
 36 37  2  0  0  0  0
 36 39  1  0  0  0  0
 37 38  1  0  0  0  0
 49 50  1  0  0  0  0
 49 55  2  0  0  0  0
 50 51  2  0  0  0  0
 50 60  1  0  0  0  0
 51 52  1  0  0  0  0
 51 53  1  0  0  0  0
 53 54  2  0  0  0  0
 53 59  1  0  0  0  0
 54 55  1  0  0  0  0
 54 58  1  0  0  0  0
 55 56  1  0  0  0  0
 56 57  2  0  0  0  0
M  END
$$$$
mol25_score_24.0903
  PyMOL2.5          3D                             0

 70 75  0  0  1  0  0  0  0  0999 V2000
   -8.0900   -6.9650  -24.0070 O   0  0  0  0  0  0  0  0  0  0  0  0
   -8.0190   -6.2580  -23.0200 C   0  0  0  0  0  0  0  0  0  0  0  0
   -9.1280   -5.2960  -22.5980 C   0  0  0  0  0  0  0  0  0  0  0  0
   -8.7540   -3.8820  -22.8810 N   0  3  1  0  0  0  0  0  0  0  0  0
   -8.4240   -3.7160  -24.3670 C   0  0  0  0  0  0  0  0  0  0  0  0
   -8.1230   -2.2820  -24.7010 C   0  0  0  0  0  0  0  0  0  0  0  0
   -7.3380   -1.9680  -25.8100 C   0  0  0  0  0  0  0  0  0  0  0  0
   -7.0590   -0.6490  -26.1410 C   0  0  0  0  0  0  0  0  0  0  0  0
   -7.5800    0.3700  -25.3510 C   0  0  0  0  0  0  0  0  0  0  0  0
   -7.2410    2.0310  -25.7380 Cl  0  0  0  0  0  0  0  0  0  0  0  0
   -8.3540    0.0790  -24.2410 C   0  0  0  0  0  0  0  0  0  0  0  0
   -8.6380   -1.2490  -23.9240 C   0  0  0  0  0  0  0  0  0  0  0  0
   -9.4280   -1.4800  -22.6650 C   0  0  2  0  0  0  0  0  0  0  0  0
   -8.6810   -0.9100  -21.4660 C   0  0  0  0  0  0  0  0  0  0  0  0
   -9.1590   -0.0390  -20.7650 O   0  0  0  0  0  0  0  0  0  0  0  0
   -7.4380   -1.4520  -21.2210 N   0  0  0  0  0  0  0  0  0  0  0  0
   -6.6110   -0.8930  -20.2120 C   0  0  0  0  0  0  0  0  0  0  0  0
   -6.9310   -1.1020  -18.8970 C   0  0  0  0  0  0  0  0  0  0  0  0
   -6.2350   -0.6000  -17.8490 N   0  0  0  0  0  0  0  0  0  0  0  0
   -5.2010    0.1540  -18.1190 C   0  0  0  0  0  0  0  0  0  0  0  0
   -4.7590    0.4630  -19.4330 C   0  0  0  0  0  0  0  0  0  0  0  0
   -3.6490    1.3170  -19.6530 C   0  0  0  0  0  0  0  0  0  0  0  0
   -3.2760    1.6410  -20.9270 C   0  0  0  0  0  0  0  0  0  0  0  0
   -3.9970    1.1260  -22.0310 C   0  0  0  0  0  0  0  0  0  0  0  0
   -5.0720    0.2910  -21.8430 C   0  0  0  0  0  0  0  0  0  0  0  0
   -5.4780   -0.0700  -20.5290 C   0  0  0  0  0  0  0  0  0  0  0  0
   -5.6260   -0.0770  -22.7030 H   0  0  0  0  0  0  0  0  0  0  0  0
   -3.6900    1.4020  -23.0360 H   0  0  0  0  0  0  0  0  0  0  0  0
   -2.4290    2.2980  -21.1000 H   0  0  0  0  0  0  0  0  0  0  0  0
   -3.1280    1.7180  -18.7870 H   0  0  0  0  0  0  0  0  0  0  0  0
   -4.6560    0.5660  -17.2720 H   0  0  0  0  0  0  0  0  0  0  0  0
   -7.8000   -1.7030  -18.6440 H   0  0  0  0  0  0  0  0  0  0  0  0
   -7.0010   -1.9500  -21.9810 H   0  0  0  0  0  0  0  0  0  0  0  0
   -9.8580   -2.9330  -22.4770 C   0  0  0  0  0  0  0  0  0  0  0  0
  -10.1430   -3.1290  -21.4380 H   0  0  0  0  0  0  0  0  0  0  0  0
  -10.7220   -3.1350  -23.1250 H   0  0  0  0  0  0  0  0  0  0  0  0
  -10.3340   -0.8780  -22.6940 H   0  0  0  0  0  0  0  0  0  0  0  0
   -8.7460    0.8760  -23.6150 H   0  0  0  0  0  0  0  0  0  0  0  0
   -6.4460   -0.4190  -27.0070 H   0  0  0  0  0  0  0  0  0  0  0  0
   -6.9460   -2.7770  -26.4220 H   0  0  0  0  0  0  0  0  0  0  0  0
   -9.2840   -4.0890  -24.9360 H   0  0  0  0  0  0  0  0  0  0  0  0
   -7.5740   -4.3560  -24.6000 H   0  0  0  0  0  0  0  0  0  0  0  0
   -7.9050   -3.6570  -22.3200 H   0  0  0  0  0  0  0  0  0  0  0  0
  -10.0300   -5.5630  -23.1570 H   0  0  0  0  0  0  0  0  0  0  0  0
   -9.3350   -5.4120  -21.5270 H   0  0  0  0  0  0  0  0  0  0  0  0
   -6.9240   -6.2270  -22.1980 N   0  0  0  0  0  0  0  0  0  0  0  0
   -5.7340   -6.9310  -22.4630 C   0  0  0  0  0  0  0  0  0  0  0  0
   -4.9750   -7.4160  -21.4010 C   0  0  0  0  0  0  0  0  0  0  0  0
   -3.7660   -8.0290  -21.6780 C   0  0  0  0  0  0  0  0  0  0  0  0
   -3.2840   -8.1440  -22.9760 C   0  0  0  0  0  0  0  0  0  0  0  0
   -2.0510   -8.7960  -23.2110 N   0  0  0  0  0  0  0  0  0  0  0  0
   -1.0440   -8.7790  -22.1550 C   0  0  0  0  0  0  0  0  0  0  0  0
    0.2960   -9.1580  -22.7480 C   0  0  0  0  0  0  0  0  0  0  0  0
    0.1920  -10.4550  -23.2960 O   0  0  0  0  0  0  0  0  0  0  0  0
   -0.6780  -10.4880  -24.3970 C   0  0  0  0  0  0  0  0  0  0  0  0
   -1.9740   -9.7060  -24.2410 C   0  0  0  0  0  0  0  0  0  0  0  0
   -2.8860   -9.9230  -25.0230 O   0  0  0  0  0  0  0  0  0  0  0  0
   -0.9910  -11.5230  -24.5490 H   0  0  0  0  0  0  0  0  0  0  0  0
   -0.1900  -10.1380  -25.3220 H   0  0  0  0  0  0  0  0  0  0  0  0
    1.0720   -9.1890  -21.9780 H   0  0  0  0  0  0  0  0  0  0  0  0
    0.5860   -8.4260  -23.5160 H   0  0  0  0  0  0  0  0  0  0  0  0
   -1.0120   -7.7900  -21.6950 H   0  0  0  0  0  0  0  0  0  0  0  0
   -1.2840   -9.4920  -21.3570 H   0  0  0  0  0  0  0  0  0  0  0  0
   -4.0610   -7.6780  -24.0310 C   0  0  0  0  0  0  0  0  0  0  0  0
   -5.2820   -7.0890  -23.7730 C   0  0  0  0  0  0  0  0  0  0  0  0
   -5.9080   -6.7900  -24.6050 H   0  0  0  0  0  0  0  0  0  0  0  0
   -3.7220   -7.7760  -25.0530 H   0  0  0  0  0  0  0  0  0  0  0  0
   -3.2140   -8.5130  -20.8740 H   0  0  0  0  0  0  0  0  0  0  0  0
   -5.3110   -7.3200  -20.3690 H   0  0  0  0  0  0  0  0  0  0  0  0
   -6.9940   -5.7540  -21.3100 H   0  0  0  0  0  0  0  0  0  0  0  0
  1  2  2  0  0  0  0
  2  3  1  0  0  0  0
  2 46  1  0  0  0  0
  3  4  1  0  0  0  0
  3 44  1  0  0  0  0
  3 45  1  0  0  0  0
  4  5  1  0  0  0  0
  4 34  1  0  0  0  0
  4 43  1  0  0  0  0
  5  6  1  0  0  0  0
  5 41  1  0  0  0  0
  5 42  1  0  0  0  0
  6  7  2  0  0  0  0
  6 12  1  0  0  0  0
  7  8  1  0  0  0  0
  7 40  1  0  0  0  0
  8  9  2  0  0  0  0
  8 39  1  0  0  0  0
  9 10  1  0  0  0  0
  9 11  1  0  0  0  0
 11 12  2  0  0  0  0
 11 38  1  0  0  0  0
 12 13  1  0  0  0  0
 13 14  1  0  0  0  0
 13 34  1  0  0  0  0
 13 37  1  0  0  0  0
 14 15  2  0  0  0  0
 14 16  1  0  0  0  0
 16 17  1  0  0  0  0
 16 33  1  0  0  0  0
 17 18  2  0  0  0  0
 17 26  1  0  0  0  0
 18 19  1  0  0  0  0
 18 32  1  0  0  0  0
 19 20  2  0  0  0  0
 20 21  1  0  0  0  0
 20 31  1  0  0  0  0
 21 22  1  0  0  0  0
 21 26  2  0  0  0  0
 22 23  2  0  0  0  0
 22 30  1  0  0  0  0
 23 24  1  0  0  0  0
 23 29  1  0  0  0  0
 24 25  2  0  0  0  0
 24 28  1  0  0  0  0
 25 26  1  0  0  0  0
 25 27  1  0  0  0  0
 34 35  1  0  0  0  0
 34 36  1  0  0  0  0
 46 47  1  0  0  0  0
 46 70  1  0  0  0  0
 47 48  2  0  0  0  0
 47 65  1  0  0  0  0
 48 49  1  0  0  0  0
 48 69  1  0  0  0  0
 49 50  2  0  0  0  0
 49 68  1  0  0  0  0
 50 51  1  0  0  0  0
 50 64  1  0  0  0  0
 51 52  1  0  0  0  0
 51 56  1  0  0  0  0
 52 53  1  0  0  0  0
 52 62  1  0  0  0  0
 52 63  1  0  0  0  0
 53 54  1  0  0  0  0
 53 60  1  0  0  0  0
 53 61  1  0  0  0  0
 54 55  1  0  0  0  0
 55 56  1  0  0  0  0
 55 58  1  0  0  0  0
 55 59  1  0  0  0  0
 56 57  2  0  0  0  0
 64 65  2  0  0  0  0
 64 67  1  0  0  0  0
 65 66  1  0  0  0  0
M  END
$$$$
mol26_score_24.9964
  PyMOL2.5          3D                             0

 55 60  0  0  1  0  0  0  0  0999 V2000
  -10.4470   -1.0440  -23.3460 C   0  0  0  0  0  0  0  0  0  0  0  0
   -9.0130   -1.4300  -23.0010 C   0  0  1  0  0  0  0  0  0  0  0  0
   -8.3840   -0.5120  -21.9390 C   0  0  0  0  0  0  0  0  0  0  0  0
   -7.4020   -1.3740  -21.3000 N   0  0  0  0  0  0  0  0  0  0  0  0
   -6.5760   -0.9470  -20.2420 C   0  0  0  0  0  0  0  0  0  0  0  0
   -6.8740   -1.2870  -18.9480 C   0  0  0  0  0  0  0  0  0  0  0  0
   -6.1220   -0.9270  -17.8830 N   0  0  0  0  0  0  0  0  0  0  0  0
   -5.0720   -0.1740  -18.1060 C   0  0  0  0  0  0  0  0  0  0  0  0
   -4.6930    0.2980  -19.3950 C   0  0  0  0  0  0  0  0  0  0  0  0
   -3.6040    1.1850  -19.5900 C   0  0  0  0  0  0  0  0  0  0  0  0
   -3.2430    1.5650  -20.8540 C   0  0  0  0  0  0  0  0  0  0  0  0
   -3.9460    1.0760  -21.9800 C   0  0  0  0  0  0  0  0  0  0  0  0
   -5.0270    0.2470  -21.8150 C   0  0  0  0  0  0  0  0  0  0  0  0
   -5.4400   -0.1310  -20.5110 C   0  0  0  0  0  0  0  0  0  0  0  0
   -5.5770   -0.1330  -22.6710 H   0  0  0  0  0  0  0  0  0  0  0  0
   -3.6270    1.3600  -22.9780 H   0  0  0  0  0  0  0  0  0  0  0  0
   -2.4080    2.2420  -21.0050 H   0  0  0  0  0  0  0  0  0  0  0  0
   -3.0860    1.5610  -18.7120 H   0  0  0  0  0  0  0  0  0  0  0  0
   -4.4580    0.0940  -17.2440 H   0  0  0  0  0  0  0  0  0  0  0  0
   -7.7620   -1.8760  -18.7220 H   0  0  0  0  0  0  0  0  0  0  0  0
   -7.6790   -2.7170  -21.4550 C   0  0  0  0  0  0  0  0  0  0  0  0
   -7.0900   -3.6130  -20.8860 O   0  0  0  0  0  0  0  0  0  0  0  0
   -8.8440   -2.8820  -22.4290 C   0  0  1  0  0  0  0  0  0  0  0  0
  -10.0660   -3.3410  -21.5980 C   0  0  0  0  0  0  0  0  0  0  0  0
  -11.1640   -3.8110  -22.4190 N   0  0  0  0  0  0  0  0  0  0  0  0
  -12.5300   -3.7310  -21.9190 C   0  0  0  0  0  0  0  0  0  0  0  0
  -13.3590   -2.5940  -22.4390 C   0  0  0  0  0  0  0  0  0  0  0  0
  -14.0660   -2.4890  -23.6470 C   0  0  0  0  0  0  0  0  0  0  0  0
  -14.7690   -1.3610  -23.6490 N   0  0  0  0  0  0  0  0  0  0  0  0
  -14.4660   -0.8330  -22.4820 N   0  0  0  0  0  0  0  0  0  0  0  0
  -13.6600   -1.5310  -21.7000 N   0  0  0  0  0  0  0  0  0  0  0  0
  -14.9460   -0.0160  -22.1310 H   0  0  0  0  0  0  0  0  0  0  0  0
  -14.1140   -3.1940  -24.4640 H   0  0  0  0  0  0  0  0  0  0  0  0
  -12.5400   -3.6680  -20.8280 H   0  0  0  0  0  0  0  0  0  0  0  0
  -13.0380   -4.6420  -22.2410 H   0  0  0  0  0  0  0  0  0  0  0  0
  -10.9780   -4.5040  -23.5810 C   0  0  0  0  0  0  0  0  0  0  0  0
  -11.9360   -4.8830  -24.2500 O   0  0  0  0  0  0  0  0  0  0  0  0
   -9.5610   -4.7460  -23.9820 C   0  0  0  0  0  0  0  0  0  0  0  0
   -9.2860   -5.7580  -24.9020 C   0  0  0  0  0  0  0  0  0  0  0  0
   -8.0070   -5.9230  -25.3990 C   0  0  0  0  0  0  0  0  0  0  0  0
   -7.0160   -5.0540  -24.9550 C   0  0  0  0  0  0  0  0  0  0  0  0
   -5.7780   -5.1820  -25.4610 F   0  0  0  0  0  0  0  0  0  0  0  0
   -7.2440   -4.0960  -23.9860 C   0  0  0  0  0  0  0  0  0  0  0  0
   -8.5390   -3.9360  -23.4750 C   0  0  0  0  0  0  0  0  0  0  0  0
   -6.4070   -3.5250  -23.5980 H   0  0  0  0  0  0  0  0  0  0  0  0
   -7.7710   -6.6990  -26.1190 H   0  0  0  0  0  0  0  0  0  0  0  0
  -10.0970   -6.4130  -25.2060 H   0  0  0  0  0  0  0  0  0  0  0  0
  -10.4560   -2.5110  -21.0060 H   0  0  0  0  0  0  0  0  0  0  0  0
   -9.7360   -4.1050  -20.8860 H   0  0  0  0  0  0  0  0  0  0  0  0
   -9.1400   -0.1630  -21.2180 H   0  0  0  0  0  0  0  0  0  0  0  0
   -7.9190    0.3830  -22.3640 H   0  0  0  0  0  0  0  0  0  0  0  0
   -8.3860   -1.3860  -23.9010 H   0  0  0  0  0  0  0  0  0  0  0  0
  -10.5050   -0.0730  -23.8440 H   0  0  0  0  0  0  0  0  0  0  0  0
  -10.9060   -1.8030  -23.9880 H   0  0  0  0  0  0  0  0  0  0  0  0
  -11.0390   -0.9780  -22.4270 H   0  0  0  0  0  0  0  0  0  0  0  0
  1  2  1  0  0  0  0
  1 53  1  0  0  0  0
  1 54  1  0  0  0  0
  1 55  1  0  0  0  0
  2  3  1  0  0  0  0
  2 23  1  0  0  0  0
  2 52  1  0  0  0  0
  3  4  1  0  0  0  0
  3 50  1  0  0  0  0
  3 51  1  0  0  0  0
  4  5  1  0  0  0  0
  4 21  1  0  0  0  0
  5  6  2  0  0  0  0
  5 14  1  0  0  0  0
  6  7  1  0  0  0  0
  6 20  1  0  0  0  0
  7  8  2  0  0  0  0
  8  9  1  0  0  0  0
  8 19  1  0  0  0  0
  9 10  1  0  0  0  0
  9 14  2  0  0  0  0
 10 11  2  0  0  0  0
 10 18  1  0  0  0  0
 11 12  1  0  0  0  0
 11 17  1  0  0  0  0
 12 13  2  0  0  0  0
 12 16  1  0  0  0  0
 13 14  1  0  0  0  0
 13 15  1  0  0  0  0
 21 22  2  0  0  0  0
 21 23  1  0  0  0  0
 23 24  1  0  0  0  0
 23 44  1  0  0  0  0
 24 25  1  0  0  0  0
 24 48  1  0  0  0  0
 24 49  1  0  0  0  0
 25 26  1  0  0  0  0
 25 36  1  0  0  0  0
 26 27  1  0  0  0  0
 26 34  1  0  0  0  0
 26 35  1  0  0  0  0
 27 28  1  0  0  0  0
 27 31  2  0  0  0  0
 28 29  2  0  0  0  0
 28 33  1  0  0  0  0
 29 30  1  0  0  0  0
 30 31  1  0  0  0  0
 30 32  1  0  0  0  0
 36 37  2  0  0  0  0
 36 38  1  0  0  0  0
 38 39  2  0  0  0  0
 38 44  1  0  0  0  0
 39 40  1  0  0  0  0
 39 47  1  0  0  0  0
 40 41  2  0  0  0  0
 40 46  1  0  0  0  0
 41 42  1  0  0  0  0
 41 43  1  0  0  0  0
 43 44  2  0  0  0  0
 43 45  1  0  0  0  0
M  END
$$$$
mol27_score_21.9837
  PyMOL2.5          3D                             0

 58 62  0  0  1  0  0  0  0  0999 V2000
   -7.0430    3.5760  -22.0940 C   0  0  0  0  0  0  0  0  0  0  0  0
   -7.2840    2.5330  -23.0940 N   0  3  0  0  0  0  0  0  0  0  0  0
   -8.4380    2.8270  -23.9880 C   0  0  0  0  0  0  0  0  0  0  0  0
   -8.7140    1.6730  -24.9440 C   0  0  0  0  0  0  0  0  0  0  0  0
   -9.3760    0.5320  -24.3240 N   0  0  0  0  0  0  0  0  0  0  0  0
   -8.6720   -0.7300  -24.1920 C   0  0  0  0  0  0  0  0  0  0  0  0
   -9.0670   -1.4880  -22.9010 C   0  0  2  0  0  0  0  0  0  0  0  0
   -8.5300   -0.7300  -21.6570 C   0  0  0  0  0  0  0  0  0  0  0  0
   -8.9690    0.2940  -21.1750 O   0  0  0  0  0  0  0  0  0  0  0  0
   -7.4170   -1.3870  -21.1880 N   0  0  0  0  0  0  0  0  0  0  0  0
   -6.6090   -0.8050  -20.1700 C   0  0  0  0  0  0  0  0  0  0  0  0
   -6.9090   -1.0450  -18.8570 C   0  0  0  0  0  0  0  0  0  0  0  0
   -6.1990   -0.5610  -17.8090 N   0  0  0  0  0  0  0  0  0  0  0  0
   -5.1690    0.2040  -18.0800 C   0  0  0  0  0  0  0  0  0  0  0  0
   -4.7450    0.5450  -19.3960 C   0  0  0  0  0  0  0  0  0  0  0  0
   -3.6180    1.3810  -19.6350 C   0  0  0  0  0  0  0  0  0  0  0  0
   -3.2450    1.7000  -20.9120 C   0  0  0  0  0  0  0  0  0  0  0  0
   -3.9840    1.1990  -22.0030 C   0  0  0  0  0  0  0  0  0  0  0  0
   -5.0720    0.3800  -21.8000 C   0  0  0  0  0  0  0  0  0  0  0  0
   -5.4910    0.0310  -20.4860 C   0  0  0  0  0  0  0  0  0  0  0  0
   -5.5700   -0.0630  -22.6580 H   0  0  0  0  0  0  0  0  0  0  0  0
   -3.6650    1.4120  -23.0210 H   0  0  0  0  0  0  0  0  0  0  0  0
   -2.3730    2.3220  -21.0940 H   0  0  0  0  0  0  0  0  0  0  0  0
   -3.0750    1.7660  -18.7760 H   0  0  0  0  0  0  0  0  0  0  0  0
   -4.6220    0.6090  -17.2280 H   0  0  0  0  0  0  0  0  0  0  0  0
   -7.7610   -1.6700  -18.6000 H   0  0  0  0  0  0  0  0  0  0  0  0
   -7.0540   -2.5670  -21.9500 C   0  0  0  0  0  0  0  0  0  0  0  0
   -8.3110   -2.8540  -22.8020 C   0  0  2  0  0  0  0  0  0  0  0  0
   -7.9700   -3.5640  -24.1210 C   0  0  0  0  0  0  0  0  0  0  0  0
   -7.5150   -4.5450  -23.9350 H   0  0  0  0  0  0  0  0  0  0  0  0
   -8.8570   -3.7220  -24.7480 H   0  0  0  0  0  0  0  0  0  0  0  0
   -7.2500   -2.9800  -24.7100 H   0  0  0  0  0  0  0  0  0  0  0  0
   -8.9580   -3.5110  -22.2150 H   0  0  0  0  0  0  0  0  0  0  0  0
   -6.8000   -3.3940  -21.2750 H   0  0  0  0  0  0  0  0  0  0  0  0
   -6.1710   -2.3850  -22.5850 H   0  0  0  0  0  0  0  0  0  0  0  0
  -10.5840   -1.5560  -22.8460 C   0  0  0  0  0  0  0  0  0  0  0  0
  -11.2340   -2.4950  -22.0340 C   0  0  0  0  0  0  0  0  0  0  0  0
  -12.6080   -2.4550  -21.9320 C   0  0  0  0  0  0  0  0  0  0  0  0
  -13.2340   -3.2790  -21.0810 F   0  0  0  0  0  0  0  0  0  0  0  0
  -13.3870   -1.5570  -22.6480 C   0  0  0  0  0  0  0  0  0  0  0  0
  -12.7550   -0.5900  -23.4000 C   0  0  0  0  0  0  0  0  0  0  0  0
  -11.3620   -0.5650  -23.4690 C   0  0  0  0  0  0  0  0  0  0  0  0
  -10.7280    0.6030  -24.1640 C   0  0  0  0  0  0  0  0  0  0  0  0
  -11.3910    1.5610  -24.5460 O   0  0  0  0  0  0  0  0  0  0  0  0
  -13.3070    0.1960  -23.9070 H   0  0  0  0  0  0  0  0  0  0  0  0
  -14.4620   -1.6210  -22.5470 H   0  0  0  0  0  0  0  0  0  0  0  0
  -10.6960   -3.2250  -21.4410 H   0  0  0  0  0  0  0  0  0  0  0  0
   -8.8760   -1.3830  -25.0560 H   0  0  0  0  0  0  0  0  0  0  0  0
   -7.6010   -0.5070  -24.1580 H   0  0  0  0  0  0  0  0  0  0  0  0
   -7.7780    1.3120  -25.3850 H   0  0  0  0  0  0  0  0  0  0  0  0
   -9.3640    2.0520  -25.7300 H   0  0  0  0  0  0  0  0  0  0  0  0
   -9.3270    3.0120  -23.3760 H   0  0  0  0  0  0  0  0  0  0  0  0
   -8.2350    3.7330  -24.5680 H   0  0  0  0  0  0  0  0  0  0  0  0
   -6.4210    2.4040  -23.6750 H   0  0  0  0  0  0  0  0  0  0  0  0
   -7.4990    1.6390  -22.5990 H   0  0  0  0  0  0  0  0  0  0  0  0
   -6.1750    3.2990  -21.4960 H   0  0  0  0  0  0  0  0  0  0  0  0
   -7.9230    3.6790  -21.4510 H   0  0  0  0  0  0  0  0  0  0  0  0
   -6.8730    4.5490  -22.5680 H   0  0  0  0  0  0  0  0  0  0  0  0
  1  2  1  0  0  0  0
  1 56  1  0  0  0  0
  1 57  1  0  0  0  0
  1 58  1  0  0  0  0
  2  3  1  0  0  0  0
  2 54  1  0  0  0  0
  2 55  1  0  0  0  0
  3  4  1  0  0  0  0
  3 52  1  0  0  0  0
  3 53  1  0  0  0  0
  4  5  1  0  0  0  0
  4 50  1  0  0  0  0
  4 51  1  0  0  0  0
  5  6  1  0  0  0  0
  5 43  1  0  0  0  0
  6  7  1  0  0  0  0
  6 48  1  0  0  0  0
  6 49  1  0  0  0  0
  7  8  1  0  0  0  0
  7 28  1  0  0  0  0
  7 36  1  0  0  0  0
  8  9  2  0  0  0  0
  8 10  1  0  0  0  0
 10 11  1  0  0  0  0
 10 27  1  0  0  0  0
 11 12  2  0  0  0  0
 11 20  1  0  0  0  0
 12 13  1  0  0  0  0
 12 26  1  0  0  0  0
 13 14  2  0  0  0  0
 14 15  1  0  0  0  0
 14 25  1  0  0  0  0
 15 16  1  0  0  0  0
 15 20  2  0  0  0  0
 16 17  2  0  0  0  0
 16 24  1  0  0  0  0
 17 18  1  0  0  0  0
 17 23  1  0  0  0  0
 18 19  2  0  0  0  0
 18 22  1  0  0  0  0
 19 20  1  0  0  0  0
 19 21  1  0  0  0  0
 27 28  1  0  0  0  0
 27 34  1  0  0  0  0
 27 35  1  0  0  0  0
 28 29  1  0  0  0  0
 28 33  1  0  0  0  0
 29 30  1  0  0  0  0
 29 31  1  0  0  0  0
 29 32  1  0  0  0  0
 36 37  1  0  0  0  0
 36 42  2  0  0  0  0
 37 38  2  0  0  0  0
 37 47  1  0  0  0  0
 38 39  1  0  0  0  0
 38 40  1  0  0  0  0
 40 41  2  0  0  0  0
 40 46  1  0  0  0  0
 41 42  1  0  0  0  0
 41 45  1  0  0  0  0
 42 43  1  0  0  0  0
 43 44  2  0  0  0  0
M  END
$$$$
mol28_score_23.8217
  PyMOL2.5          3D                             0

 64 68  0  0  1  0  0  0  0  0999 V2000
   -7.6820    3.0750  -22.4440 C   0  0  0  0  0  0  0  0  0  0  0  0
   -8.5930    2.5860  -23.4520 N   0  0  0  0  0  0  0  0  0  0  0  0
   -8.0630    1.9650  -24.5340 C   0  0  0  0  0  0  0  0  0  0  0  0
   -6.8660    1.9440  -24.7750 O   0  0  0  0  0  0  0  0  0  0  0  0
   -9.0750    1.2230  -25.4050 C   0  0  0  0  0  0  0  0  0  0  0  0
   -9.6980    0.1370  -24.6580 N   0  0  0  0  0  0  0  0  0  0  0  0
   -8.8150   -0.9450  -24.2600 C   0  0  0  0  0  0  0  0  0  0  0  0
   -9.1820   -1.6280  -22.9010 C   0  0  2  0  0  0  0  0  0  0  0  0
   -8.6720   -0.7600  -21.7170 C   0  0  0  0  0  0  0  0  0  0  0  0
   -9.2200    0.2210  -21.2530 O   0  0  0  0  0  0  0  0  0  0  0  0
   -7.4740   -1.2840  -21.2810 N   0  0  0  0  0  0  0  0  0  0  0  0
   -6.6990   -0.7220  -20.2340 C   0  0  0  0  0  0  0  0  0  0  0  0
   -7.0000   -0.9920  -18.9230 C   0  0  0  0  0  0  0  0  0  0  0  0
   -6.2680   -0.5580  -17.8690 N   0  0  0  0  0  0  0  0  0  0  0  0
   -5.2020    0.1600  -18.1170 C   0  0  0  0  0  0  0  0  0  0  0  0
   -4.7660    0.5090  -19.4280 C   0  0  0  0  0  0  0  0  0  0  0  0
   -3.6060    1.2960  -19.6580 C   0  0  0  0  0  0  0  0  0  0  0  0
   -3.2260    1.6170  -20.9320 C   0  0  0  0  0  0  0  0  0  0  0  0
   -3.9910    1.1770  -22.0350 C   0  0  0  0  0  0  0  0  0  0  0  0
   -5.1230    0.4220  -21.8370 C   0  0  0  0  0  0  0  0  0  0  0  0
   -5.5360    0.0590  -20.5250 C   0  0  0  0  0  0  0  0  0  0  0  0
   -5.7430    0.1490  -22.6870 H   0  0  0  0  0  0  0  0  0  0  0  0
   -3.6960    1.4460  -23.0440 H   0  0  0  0  0  0  0  0  0  0  0  0
   -2.3470    2.2300  -21.1050 H   0  0  0  0  0  0  0  0  0  0  0  0
   -3.0380    1.6440  -18.8010 H   0  0  0  0  0  0  0  0  0  0  0  0
   -4.6240    0.5100  -17.2590 H   0  0  0  0  0  0  0  0  0  0  0  0
   -7.8690   -1.6000  -18.6810 H   0  0  0  0  0  0  0  0  0  0  0  0
   -7.0480   -2.4740  -21.9840 C   0  0  0  0  0  0  0  0  0  0  0  0
   -8.3340   -2.9210  -22.7070 C   0  0  2  0  0  0  0  0  0  0  0  0
   -8.0770   -3.6990  -23.9940 C   0  0  0  0  0  0  0  0  0  0  0  0
   -7.2720   -5.2590  -23.7240 S   0  0  0  0  0  0  0  0  0  0  0  0
   -5.8890   -5.0210  -23.3380 O   0  0  0  0  0  0  0  0  0  0  0  0
   -8.1230   -6.1080  -22.8950 O   0  0  0  0  0  0  0  0  0  0  0  0
   -7.2200   -5.8110  -25.2850 N   0  0  0  0  0  0  0  0  0  0  0  0
   -8.4430   -6.3320  -25.8770 C   0  0  0  0  0  0  0  0  0  0  0  0
   -9.0470   -5.5020  -26.2620 H   0  0  0  0  0  0  0  0  0  0  0  0
   -9.0410   -6.8980  -25.1550 H   0  0  0  0  0  0  0  0  0  0  0  0
   -8.1800   -6.9730  -26.7180 H   0  0  0  0  0  0  0  0  0  0  0  0
   -6.3500   -6.3100  -25.4420 H   0  0  0  0  0  0  0  0  0  0  0  0
   -9.0210   -3.9060  -24.5090 H   0  0  0  0  0  0  0  0  0  0  0  0
   -7.4050   -3.1580  -24.6700 H   0  0  0  0  0  0  0  0  0  0  0  0
   -8.8800   -3.5760  -22.0240 H   0  0  0  0  0  0  0  0  0  0  0  0
   -6.2220   -2.2650  -22.6840 H   0  0  0  0  0  0  0  0  0  0  0  0
   -6.6870   -3.2280  -21.2800 H   0  0  0  0  0  0  0  0  0  0  0  0
  -10.6940   -1.7910  -22.8060 C   0  0  0  0  0  0  0  0  0  0  0  0
  -11.2920   -2.7460  -21.9680 C   0  0  0  0  0  0  0  0  0  0  0  0
  -12.6670   -2.7680  -21.7980 C   0  0  0  0  0  0  0  0  0  0  0  0
  -13.3890   -3.9460  -20.7380 Cl  0  0  0  0  0  0  0  0  0  0  0  0
  -13.5040   -1.8500  -22.4310 C   0  0  0  0  0  0  0  0  0  0  0  0
  -12.9240   -0.8870  -23.2310 C   0  0  0  0  0  0  0  0  0  0  0  0
  -11.5410   -0.8540  -23.4180 C   0  0  0  0  0  0  0  0  0  0  0  0
  -10.9900    0.2730  -24.2400 C   0  0  0  0  0  0  0  0  0  0  0  0
  -11.6600    1.2660  -24.4990 O   0  0  0  0  0  0  0  0  0  0  0  0
  -13.5240   -0.1210  -23.7090 H   0  0  0  0  0  0  0  0  0  0  0  0
  -14.5770   -1.8830  -22.2650 H   0  0  0  0  0  0  0  0  0  0  0  0
  -10.7050   -3.4620  -21.4030 H   0  0  0  0  0  0  0  0  0  0  0  0
   -7.8140   -0.5060  -24.1770 H   0  0  0  0  0  0  0  0  0  0  0  0
   -8.7840   -1.6780  -25.0730 H   0  0  0  0  0  0  0  0  0  0  0  0
   -9.8910    1.8780  -25.7110 H   0  0  0  0  0  0  0  0  0  0  0  0
   -8.5420    0.8560  -26.2880 H   0  0  0  0  0  0  0  0  0  0  0  0
   -9.5050    2.2900  -23.1350 H   0  0  0  0  0  0  0  0  0  0  0  0
   -7.0810    2.2500  -22.0520 H   0  0  0  0  0  0  0  0  0  0  0  0
   -6.9980    3.8130  -22.8710 H   0  0  0  0  0  0  0  0  0  0  0  0
   -8.2460    3.5270  -21.6320 H   0  0  0  0  0  0  0  0  0  0  0  0
  1  2  1  0  0  0  0
  1 62  1  0  0  0  0
  1 63  1  0  0  0  0
  1 64  1  0  0  0  0
  2  3  1  0  0  0  0
  2 61  1  0  0  0  0
  3  4  2  0  0  0  0
  3  5  1  0  0  0  0
  5  6  1  0  0  0  0
  5 59  1  0  0  0  0
  5 60  1  0  0  0  0
  6  7  1  0  0  0  0
  6 52  1  0  0  0  0
  7  8  1  0  0  0  0
  7 57  1  0  0  0  0
  7 58  1  0  0  0  0
  8  9  1  0  0  0  0
  8 29  1  0  0  0  0
  8 45  1  0  0  0  0
  9 10  2  0  0  0  0
  9 11  1  0  0  0  0
 11 12  1  0  0  0  0
 11 28  1  0  0  0  0
 12 13  2  0  0  0  0
 12 21  1  0  0  0  0
 13 14  1  0  0  0  0
 13 27  1  0  0  0  0
 14 15  2  0  0  0  0
 15 16  1  0  0  0  0
 15 26  1  0  0  0  0
 16 17  1  0  0  0  0
 16 21  2  0  0  0  0
 17 18  2  0  0  0  0
 17 25  1  0  0  0  0
 18 19  1  0  0  0  0
 18 24  1  0  0  0  0
 19 20  2  0  0  0  0
 19 23  1  0  0  0  0
 20 21  1  0  0  0  0
 20 22  1  0  0  0  0
 28 29  1  0  0  0  0
 28 43  1  0  0  0  0
 28 44  1  0  0  0  0
 29 30  1  0  0  0  0
 29 42  1  0  0  0  0
 30 31  1  0  0  0  0
 30 40  1  0  0  0  0
 30 41  1  0  0  0  0
 31 32  2  0  0  0  0
 31 33  2  0  0  0  0
 31 34  1  0  0  0  0
 34 35  1  0  0  0  0
 34 39  1  0  0  0  0
 35 36  1  0  0  0  0
 35 37  1  0  0  0  0
 35 38  1  0  0  0  0
 45 46  1  0  0  0  0
 45 51  2  0  0  0  0
 46 47  2  0  0  0  0
 46 56  1  0  0  0  0
 47 48  1  0  0  0  0
 47 49  1  0  0  0  0
 49 50  2  0  0  0  0
 49 55  1  0  0  0  0
 50 51  1  0  0  0  0
 50 54  1  0  0  0  0
 51 52  1  0  0  0  0
 52 53  2  0  0  0  0
M  END
$$$$
mol29_score_24.9983
  PyMOL2.5          3D                             0

 55 60  0  0  1  0  0  0  0  0999 V2000
  -10.4470   -1.0440  -23.3460 C   0  0  0  0  0  0  0  0  0  0  0  0
   -9.0130   -1.4300  -23.0010 C   0  0  1  0  0  0  0  0  0  0  0  0
   -8.3840   -0.5120  -21.9390 C   0  0  0  0  0  0  0  0  0  0  0  0
   -7.4020   -1.3740  -21.3000 N   0  0  0  0  0  0  0  0  0  0  0  0
   -6.5760   -0.9470  -20.2420 C   0  0  0  0  0  0  0  0  0  0  0  0
   -6.8740   -1.2870  -18.9480 C   0  0  0  0  0  0  0  0  0  0  0  0
   -6.1220   -0.9270  -17.8830 N   0  0  0  0  0  0  0  0  0  0  0  0
   -5.0720   -0.1750  -18.1060 C   0  0  0  0  0  0  0  0  0  0  0  0
   -4.6930    0.2980  -19.3950 C   0  0  0  0  0  0  0  0  0  0  0  0
   -3.6040    1.1850  -19.5900 C   0  0  0  0  0  0  0  0  0  0  0  0
   -3.2440    1.5650  -20.8540 C   0  0  0  0  0  0  0  0  0  0  0  0
   -3.9460    1.0760  -21.9800 C   0  0  0  0  0  0  0  0  0  0  0  0
   -5.0270    0.2470  -21.8150 C   0  0  0  0  0  0  0  0  0  0  0  0
   -5.4400   -0.1310  -20.5110 C   0  0  0  0  0  0  0  0  0  0  0  0
   -5.5770   -0.1330  -22.6710 H   0  0  0  0  0  0  0  0  0  0  0  0
   -3.6270    1.3600  -22.9780 H   0  0  0  0  0  0  0  0  0  0  0  0
   -2.4080    2.2420  -21.0050 H   0  0  0  0  0  0  0  0  0  0  0  0
   -3.0860    1.5620  -18.7120 H   0  0  0  0  0  0  0  0  0  0  0  0
   -4.4580    0.0940  -17.2440 H   0  0  0  0  0  0  0  0  0  0  0  0
   -7.7620   -1.8760  -18.7230 H   0  0  0  0  0  0  0  0  0  0  0  0
   -7.6790   -2.7170  -21.4550 C   0  0  0  0  0  0  0  0  0  0  0  0
   -7.0900   -3.6130  -20.8860 O   0  0  0  0  0  0  0  0  0  0  0  0
   -8.8440   -2.8820  -22.4290 C   0  0  1  0  0  0  0  0  0  0  0  0
  -10.0660   -3.3410  -21.5980 C   0  0  0  0  0  0  0  0  0  0  0  0
  -11.1630   -3.8110  -22.4190 N   0  0  0  0  0  0  0  0  0  0  0  0
  -12.5300   -3.7310  -21.9190 C   0  0  0  0  0  0  0  0  0  0  0  0
  -13.3590   -2.5940  -22.4380 C   0  0  0  0  0  0  0  0  0  0  0  0
  -14.0660   -2.4890  -23.6470 C   0  0  0  0  0  0  0  0  0  0  0  0
  -14.7690   -1.3620  -23.6490 N   0  0  0  0  0  0  0  0  0  0  0  0
  -14.4660   -0.8330  -22.4820 N   0  0  0  0  0  0  0  0  0  0  0  0
  -13.6600   -1.5310  -21.7000 N   0  0  0  0  0  0  0  0  0  0  0  0
  -14.9460   -0.0160  -22.1310 H   0  0  0  0  0  0  0  0  0  0  0  0
  -14.1140   -3.1940  -24.4640 H   0  0  0  0  0  0  0  0  0  0  0  0
  -12.5400   -3.6680  -20.8280 H   0  0  0  0  0  0  0  0  0  0  0  0
  -13.0380   -4.6420  -22.2410 H   0  0  0  0  0  0  0  0  0  0  0  0
  -10.9780   -4.5040  -23.5810 C   0  0  0  0  0  0  0  0  0  0  0  0
  -11.9360   -4.8830  -24.2500 O   0  0  0  0  0  0  0  0  0  0  0  0
   -9.5610   -4.7460  -23.9820 C   0  0  0  0  0  0  0  0  0  0  0  0
   -9.2860   -5.7580  -24.9020 C   0  0  0  0  0  0  0  0  0  0  0  0
   -8.0070   -5.9230  -25.3990 C   0  0  0  0  0  0  0  0  0  0  0  0
   -7.0150   -5.0540  -24.9550 C   0  0  0  0  0  0  0  0  0  0  0  0
   -5.7780   -5.1820  -25.4610 F   0  0  0  0  0  0  0  0  0  0  0  0
   -7.2440   -4.0960  -23.9860 C   0  0  0  0  0  0  0  0  0  0  0  0
   -8.5390   -3.9360  -23.4750 C   0  0  0  0  0  0  0  0  0  0  0  0
   -6.4070   -3.5250  -23.5970 H   0  0  0  0  0  0  0  0  0  0  0  0
   -7.7710   -6.6990  -26.1190 H   0  0  0  0  0  0  0  0  0  0  0  0
  -10.0970   -6.4130  -25.2060 H   0  0  0  0  0  0  0  0  0  0  0  0
  -10.4560   -2.5110  -21.0060 H   0  0  0  0  0  0  0  0  0  0  0  0
   -9.7360   -4.1050  -20.8860 H   0  0  0  0  0  0  0  0  0  0  0  0
   -9.1400   -0.1630  -21.2180 H   0  0  0  0  0  0  0  0  0  0  0  0
   -7.9190    0.3830  -22.3640 H   0  0  0  0  0  0  0  0  0  0  0  0
   -8.3860   -1.3860  -23.9010 H   0  0  0  0  0  0  0  0  0  0  0  0
  -10.5050   -0.0730  -23.8440 H   0  0  0  0  0  0  0  0  0  0  0  0
  -10.9050   -1.8030  -23.9880 H   0  0  0  0  0  0  0  0  0  0  0  0
  -11.0380   -0.9780  -22.4270 H   0  0  0  0  0  0  0  0  0  0  0  0
  1  2  1  0  0  0  0
  1 53  1  0  0  0  0
  1 54  1  0  0  0  0
  1 55  1  0  0  0  0
  2  3  1  0  0  0  0
  2 23  1  0  0  0  0
  2 52  1  0  0  0  0
  3  4  1  0  0  0  0
  3 50  1  0  0  0  0
  3 51  1  0  0  0  0
  4  5  1  0  0  0  0
  4 21  1  0  0  0  0
  5  6  2  0  0  0  0
  5 14  1  0  0  0  0
  6  7  1  0  0  0  0
  6 20  1  0  0  0  0
  7  8  2  0  0  0  0
  8  9  1  0  0  0  0
  8 19  1  0  0  0  0
  9 10  1  0  0  0  0
  9 14  2  0  0  0  0
 10 11  2  0  0  0  0
 10 18  1  0  0  0  0
 11 12  1  0  0  0  0
 11 17  1  0  0  0  0
 12 13  2  0  0  0  0
 12 16  1  0  0  0  0
 13 14  1  0  0  0  0
 13 15  1  0  0  0  0
 21 22  2  0  0  0  0
 21 23  1  0  0  0  0
 23 24  1  0  0  0  0
 23 44  1  0  0  0  0
 24 25  1  0  0  0  0
 24 48  1  0  0  0  0
 24 49  1  0  0  0  0
 25 26  1  0  0  0  0
 25 36  1  0  0  0  0
 26 27  1  0  0  0  0
 26 34  1  0  0  0  0
 26 35  1  0  0  0  0
 27 28  1  0  0  0  0
 27 31  2  0  0  0  0
 28 29  2  0  0  0  0
 28 33  1  0  0  0  0
 29 30  1  0  0  0  0
 30 31  1  0  0  0  0
 30 32  1  0  0  0  0
 36 37  2  0  0  0  0
 36 38  1  0  0  0  0
 38 39  2  0  0  0  0
 38 44  1  0  0  0  0
 39 40  1  0  0  0  0
 39 47  1  0  0  0  0
 40 41  2  0  0  0  0
 40 46  1  0  0  0  0
 41 42  1  0  0  0  0
 41 43  1  0  0  0  0
 43 44  2  0  0  0  0
 43 45  1  0  0  0  0
M  END
$$$$
mol30_score_28.7696
  PyMOL2.5          3D                             0

 58 63  0  0  1  0  0  0  0  0999 V2000
  -10.4550   -1.1480  -23.2410 C   0  0  0  0  0  0  0  0  0  0  0  0
   -9.0020   -1.4940  -22.9210 C   0  0  1  0  0  0  0  0  0  0  0  0
   -8.3630   -0.5340  -21.9070 C   0  0  0  0  0  0  0  0  0  0  0  0
   -7.3640   -1.3510  -21.2340 N   0  0  0  0  0  0  0  0  0  0  0  0
   -6.5640   -0.8480  -20.1840 C   0  0  0  0  0  0  0  0  0  0  0  0
   -6.8810   -1.0910  -18.8720 C   0  0  0  0  0  0  0  0  0  0  0  0
   -6.2050   -0.5650  -17.8220 N   0  0  0  0  0  0  0  0  0  0  0  0
   -5.1810    0.2070  -18.0850 C   0  0  0  0  0  0  0  0  0  0  0  0
   -4.7320    0.5130  -19.4010 C   0  0  0  0  0  0  0  0  0  0  0  0
   -3.6060    1.3400  -19.6400 C   0  0  0  0  0  0  0  0  0  0  0  0
   -3.2160    1.6200  -20.9200 C   0  0  0  0  0  0  0  0  0  0  0  0
   -3.9270    1.0890  -22.0180 C   0  0  0  0  0  0  0  0  0  0  0  0
   -5.0140    0.2750  -21.8150 C   0  0  0  0  0  0  0  0  0  0  0  0
   -5.4440   -0.0210  -20.4940 C   0  0  0  0  0  0  0  0  0  0  0  0
   -5.5480   -0.1530  -22.6570 H   0  0  0  0  0  0  0  0  0  0  0  0
   -3.6140    1.3320  -23.0290 H   0  0  0  0  0  0  0  0  0  0  0  0
   -2.3620    2.2660  -21.0990 H   0  0  0  0  0  0  0  0  0  0  0  0
   -3.0850    1.7580  -18.7840 H   0  0  0  0  0  0  0  0  0  0  0  0
   -4.6430    0.6320  -17.2360 H   0  0  0  0  0  0  0  0  0  0  0  0
   -7.7260   -1.7300  -18.6200 H   0  0  0  0  0  0  0  0  0  0  0  0
   -7.5840   -2.7030  -21.3680 C   0  0  0  0  0  0  0  0  0  0  0  0
   -6.9150   -3.5670  -20.8330 O   0  0  0  0  0  0  0  0  0  0  0  0
   -8.7870   -2.9140  -22.2890 C   0  0  1  0  0  0  0  0  0  0  0  0
   -9.9990   -3.3240  -21.4190 C   0  0  0  0  0  0  0  0  0  0  0  0
  -11.1400   -3.7630  -22.2070 N   0  0  0  0  0  0  0  0  0  0  0  0
  -12.4910   -3.7910  -21.6090 C   0  0  0  0  0  0  0  0  0  0  0  0
  -13.5010   -2.8010  -22.1880 C   0  0  0  0  0  0  0  0  0  0  0  0
  -14.0520   -1.6750  -21.6370 C   0  0  0  0  0  0  0  0  0  0  0  0
  -14.7500   -0.7260  -22.4970 C   0  0  0  0  0  0  0  0  0  0  0  0
  -15.1800    0.3780  -22.2270 O   0  0  0  0  0  0  0  0  0  0  0  0
  -14.9030   -1.1840  -23.8090 N   0  0  0  0  0  0  0  0  0  0  0  0
  -14.5900   -2.4410  -24.1820 C   0  0  0  0  0  0  0  0  0  0  0  0
  -13.9310   -3.2320  -23.4200 N   0  0  0  0  0  0  0  0  0  0  0  0
  -14.9230   -2.7610  -25.1640 H   0  0  0  0  0  0  0  0  0  0  0  0
  -15.4640   -0.5910  -24.3970 H   0  0  0  0  0  0  0  0  0  0  0  0
  -14.0350   -1.4090  -20.5880 H   0  0  0  0  0  0  0  0  0  0  0  0
  -12.8940   -4.7440  -21.9350 H   0  0  0  0  0  0  0  0  0  0  0  0
  -12.4530   -3.7860  -20.5180 H   0  0  0  0  0  0  0  0  0  0  0  0
  -10.8990   -4.6740  -23.2080 C   0  0  0  0  0  0  0  0  0  0  0  0
  -11.7930   -5.3530  -23.6670 O   0  0  0  0  0  0  0  0  0  0  0  0
   -9.5130   -4.8120  -23.7520 C   0  0  0  0  0  0  0  0  0  0  0  0
   -9.2770   -5.7540  -24.7590 C   0  0  0  0  0  0  0  0  0  0  0  0
   -8.0360   -5.8600  -25.3570 C   0  0  0  0  0  0  0  0  0  0  0  0
   -7.0310   -5.0070  -24.9140 C   0  0  0  0  0  0  0  0  0  0  0  0
   -5.8290   -5.0800  -25.5060 F   0  0  0  0  0  0  0  0  0  0  0  0
   -7.2280   -4.0830  -23.9070 C   0  0  0  0  0  0  0  0  0  0  0  0
   -8.4920   -3.9780  -23.3140 C   0  0  0  0  0  0  0  0  0  0  0  0
   -6.4020   -3.4540  -23.5930 H   0  0  0  0  0  0  0  0  0  0  0  0
   -7.8300   -6.5660  -26.1570 H   0  0  0  0  0  0  0  0  0  0  0  0
  -10.0940   -6.3920  -25.0750 H   0  0  0  0  0  0  0  0  0  0  0  0
   -9.7050   -4.1290  -20.7410 H   0  0  0  0  0  0  0  0  0  0  0  0
  -10.2920   -2.4480  -20.8360 H   0  0  0  0  0  0  0  0  0  0  0  0
   -9.1130   -0.1650  -21.1890 H   0  0  0  0  0  0  0  0  0  0  0  0
   -7.9040    0.3350  -22.3870 H   0  0  0  0  0  0  0  0  0  0  0  0
   -8.4100   -1.4740  -23.8490 H   0  0  0  0  0  0  0  0  0  0  0  0
  -11.0490   -1.1080  -22.3210 H   0  0  0  0  0  0  0  0  0  0  0  0
  -10.9050   -1.9230  -23.8670 H   0  0  0  0  0  0  0  0  0  0  0  0
  -10.5340   -0.1820  -23.7430 H   0  0  0  0  0  0  0  0  0  0  0  0
  1  2  1  0  0  0  0
  1 56  1  0  0  0  0
  1 57  1  0  0  0  0
  1 58  1  0  0  0  0
  2  3  1  0  0  0  0
  2 23  1  0  0  0  0
  2 55  1  0  0  0  0
  3  4  1  0  0  0  0
  3 53  1  0  0  0  0
  3 54  1  0  0  0  0
  4  5  1  0  0  0  0
  4 21  1  0  0  0  0
  5  6  2  0  0  0  0
  5 14  1  0  0  0  0
  6  7  1  0  0  0  0
  6 20  1  0  0  0  0
  7  8  2  0  0  0  0
  8  9  1  0  0  0  0
  8 19  1  0  0  0  0
  9 10  1  0  0  0  0
  9 14  2  0  0  0  0
 10 11  2  0  0  0  0
 10 18  1  0  0  0  0
 11 12  1  0  0  0  0
 11 17  1  0  0  0  0
 12 13  2  0  0  0  0
 12 16  1  0  0  0  0
 13 14  1  0  0  0  0
 13 15  1  0  0  0  0
 21 22  2  0  0  0  0
 21 23  1  0  0  0  0
 23 24  1  0  0  0  0
 23 47  1  0  0  0  0
 24 25  1  0  0  0  0
 24 51  1  0  0  0  0
 24 52  1  0  0  0  0
 25 26  1  0  0  0  0
 25 39  1  0  0  0  0
 26 27  1  0  0  0  0
 26 37  1  0  0  0  0
 26 38  1  0  0  0  0
 27 28  2  0  0  0  0
 27 33  1  0  0  0  0
 28 29  1  0  0  0  0
 28 36  1  0  0  0  0
 29 30  2  0  0  0  0
 29 31  1  0  0  0  0
 31 32  1  0  0  0  0
 31 35  1  0  0  0  0
 32 33  2  0  0  0  0
 32 34  1  0  0  0  0
 39 40  2  0  0  0  0
 39 41  1  0  0  0  0
 41 42  2  0  0  0  0
 41 47  1  0  0  0  0
 42 43  1  0  0  0  0
 42 50  1  0  0  0  0
 43 44  2  0  0  0  0
 43 49  1  0  0  0  0
 44 45  1  0  0  0  0
 44 46  1  0  0  0  0
 46 47  2  0  0  0  0
 46 48  1  0  0  0  0
M  END
$$$$
mol31_score_25.6652
  PyMOL2.5          3D                             0

 66 71  0  0  1  0  0  0  0  0999 V2000
   -7.6640    3.0640  -22.4750 C   0  0  0  0  0  0  0  0  0  0  0  0
   -8.5440    2.5680  -23.5080 N   0  0  0  0  0  0  0  0  0  0  0  0
   -8.0100    1.9420  -24.5840 C   0  0  0  0  0  0  0  0  0  0  0  0
   -6.8120    1.9400  -24.8340 O   0  0  0  0  0  0  0  0  0  0  0  0
   -9.0430    1.1960  -25.4250 C   0  0  0  0  0  0  0  0  0  0  0  0
   -9.6800    0.1540  -24.6390 N   0  0  0  0  0  0  0  0  0  0  0  0
   -8.8140   -0.9380  -24.2390 C   0  0  0  0  0  0  0  0  0  0  0  0
   -9.2070   -1.5970  -22.8810 C   0  0  2  0  0  0  0  0  0  0  0  0
   -8.6720   -0.7170  -21.7190 C   0  0  0  0  0  0  0  0  0  0  0  0
   -9.2070    0.2750  -21.2570 O   0  0  0  0  0  0  0  0  0  0  0  0
   -7.4610   -1.2320  -21.3090 N   0  0  0  0  0  0  0  0  0  0  0  0
   -6.6950   -0.6810  -20.2470 C   0  0  0  0  0  0  0  0  0  0  0  0
   -7.0000   -0.9610  -18.9390 C   0  0  0  0  0  0  0  0  0  0  0  0
   -6.2660   -0.5420  -17.8790 N   0  0  0  0  0  0  0  0  0  0  0  0
   -5.1940    0.1700  -18.1160 C   0  0  0  0  0  0  0  0  0  0  0  0
   -4.7550    0.5320  -19.4220 C   0  0  0  0  0  0  0  0  0  0  0  0
   -3.5860    1.3090  -19.6490 C   0  0  0  0  0  0  0  0  0  0  0  0
   -3.2080    1.6350  -20.9220 C   0  0  0  0  0  0  0  0  0  0  0  0
   -3.9790    1.2110  -22.0270 C   0  0  0  0  0  0  0  0  0  0  0  0
   -5.1180    0.4670  -21.8330 C   0  0  0  0  0  0  0  0  0  0  0  0
   -5.5290    0.0980  -20.5250 C   0  0  0  0  0  0  0  0  0  0  0  0
   -5.7420    0.2010  -22.6820 H   0  0  0  0  0  0  0  0  0  0  0  0
   -3.6810    1.4820  -23.0350 H   0  0  0  0  0  0  0  0  0  0  0  0
   -2.3170    2.2340  -21.0940 H   0  0  0  0  0  0  0  0  0  0  0  0
   -3.0070    1.6420  -18.7920 H   0  0  0  0  0  0  0  0  0  0  0  0
   -4.6140    0.4990  -17.2520 H   0  0  0  0  0  0  0  0  0  0  0  0
   -7.8720   -1.5660  -18.7030 H   0  0  0  0  0  0  0  0  0  0  0  0
   -7.0730   -2.4560  -21.9910 C   0  0  0  0  0  0  0  0  0  0  0  0
   -8.3900   -2.8960  -22.6530 C   0  0  2  0  0  0  0  0  0  0  0  0
   -8.2380   -3.7990  -23.8870 C   0  0  0  0  0  0  0  0  0  0  0  0
   -7.7780   -5.1300  -23.5670 N   0  0  0  0  0  0  0  0  0  0  0  0
   -6.4840   -5.5350  -23.4680 C   0  0  0  0  0  0  0  0  0  0  0  0
   -5.4140   -4.9410  -24.1680 C   0  0  0  0  0  0  0  0  0  0  0  0
   -4.1810   -5.5480  -24.0280 C   0  0  0  0  0  0  0  0  0  0  0  0
   -3.9740   -6.6040  -23.2340 N   0  0  0  0  0  0  0  0  0  0  0  0
   -5.0480   -7.0670  -22.6130 C   0  0  0  0  0  0  0  0  0  0  0  0
   -6.2930   -6.6150  -22.6890 N   0  0  0  0  0  0  0  0  0  0  0  0
   -4.9000   -7.9390  -21.9750 H   0  0  0  0  0  0  0  0  0  0  0  0
   -3.3090   -5.1890  -24.5780 H   0  0  0  0  0  0  0  0  0  0  0  0
   -5.5490   -4.0800  -24.8140 H   0  0  0  0  0  0  0  0  0  0  0  0
   -8.3930   -5.6650  -22.9750 H   0  0  0  0  0  0  0  0  0  0  0  0
   -7.5540   -3.3450  -24.6090 H   0  0  0  0  0  0  0  0  0  0  0  0
   -9.2150   -3.8800  -24.3830 H   0  0  0  0  0  0  0  0  0  0  0  0
   -8.9290   -3.4680  -21.8940 H   0  0  0  0  0  0  0  0  0  0  0  0
   -6.2740   -2.2850  -22.7310 H   0  0  0  0  0  0  0  0  0  0  0  0
   -6.6890   -3.1850  -21.2690 H   0  0  0  0  0  0  0  0  0  0  0  0
  -10.7200   -1.7530  -22.7920 C   0  0  0  0  0  0  0  0  0  0  0  0
  -11.3380   -2.7120  -21.9680 C   0  0  0  0  0  0  0  0  0  0  0  0
  -12.7150   -2.7390  -21.8260 C   0  0  0  0  0  0  0  0  0  0  0  0
  -13.4530   -3.9240  -20.7810 Cl  0  0  0  0  0  0  0  0  0  0  0  0
  -13.5350   -1.8240  -22.4830 C   0  0  0  0  0  0  0  0  0  0  0  0
  -12.9400   -0.8640  -23.2760 C   0  0  0  0  0  0  0  0  0  0  0  0
  -11.5530   -0.8240  -23.4330 C   0  0  0  0  0  0  0  0  0  0  0  0
  -10.9830    0.2850  -24.2630 C   0  0  0  0  0  0  0  0  0  0  0  0
  -11.6570    1.2700  -24.5620 O   0  0  0  0  0  0  0  0  0  0  0  0
  -13.5370   -0.1060  -23.7750 H   0  0  0  0  0  0  0  0  0  0  0  0
  -14.6110   -1.8660  -22.3450 H   0  0  0  0  0  0  0  0  0  0  0  0
  -10.7670   -3.4370  -21.4000 H   0  0  0  0  0  0  0  0  0  0  0  0
   -7.8030   -0.5230  -24.1530 H   0  0  0  0  0  0  0  0  0  0  0  0
   -8.7920   -1.6800  -25.0470 H   0  0  0  0  0  0  0  0  0  0  0  0
   -9.8370    1.8660  -25.7520 H   0  0  0  0  0  0  0  0  0  0  0  0
   -8.5350    0.7890  -26.3000 H   0  0  0  0  0  0  0  0  0  0  0  0
   -9.4780    2.3090  -23.2290 H   0  0  0  0  0  0  0  0  0  0  0  0
   -7.0870    2.2530  -22.0040 H   0  0  0  0  0  0  0  0  0  0  0  0
   -8.2430    3.5940  -21.7180 H   0  0  0  0  0  0  0  0  0  0  0  0
   -6.9540    3.7730  -22.9040 H   0  0  0  0  0  0  0  0  0  0  0  0
  1  2  1  0  0  0  0
  1 64  1  0  0  0  0
  1 65  1  0  0  0  0
  1 66  1  0  0  0  0
  2  3  1  0  0  0  0
  2 63  1  0  0  0  0
  3  4  2  0  0  0  0
  3  5  1  0  0  0  0
  5  6  1  0  0  0  0
  5 61  1  0  0  0  0
  5 62  1  0  0  0  0
  6  7  1  0  0  0  0
  6 54  1  0  0  0  0
  7  8  1  0  0  0  0
  7 59  1  0  0  0  0
  7 60  1  0  0  0  0
  8  9  1  0  0  0  0
  8 29  1  0  0  0  0
  8 47  1  0  0  0  0
  9 10  2  0  0  0  0
  9 11  1  0  0  0  0
 11 12  1  0  0  0  0
 11 28  1  0  0  0  0
 12 13  2  0  0  0  0
 12 21  1  0  0  0  0
 13 14  1  0  0  0  0
 13 27  1  0  0  0  0
 14 15  2  0  0  0  0
 15 16  1  0  0  0  0
 15 26  1  0  0  0  0
 16 17  1  0  0  0  0
 16 21  2  0  0  0  0
 17 18  2  0  0  0  0
 17 25  1  0  0  0  0
 18 19  1  0  0  0  0
 18 24  1  0  0  0  0
 19 20  2  0  0  0  0
 19 23  1  0  0  0  0
 20 21  1  0  0  0  0
 20 22  1  0  0  0  0
 28 29  1  0  0  0  0
 28 45  1  0  0  0  0
 28 46  1  0  0  0  0
 29 30  1  0  0  0  0
 29 44  1  0  0  0  0
 30 31  1  0  0  0  0
 30 42  1  0  0  0  0
 30 43  1  0  0  0  0
 31 32  1  0  0  0  0
 31 41  1  0  0  0  0
 32 33  2  0  0  0  0
 32 37  1  0  0  0  0
 33 34  1  0  0  0  0
 33 40  1  0  0  0  0
 34 35  2  0  0  0  0
 34 39  1  0  0  0  0
 35 36  1  0  0  0  0
 36 37  2  0  0  0  0
 36 38  1  0  0  0  0
 47 48  1  0  0  0  0
 47 53  2  0  0  0  0
 48 49  2  0  0  0  0
 48 58  1  0  0  0  0
 49 50  1  0  0  0  0
 49 51  1  0  0  0  0
 51 52  2  0  0  0  0
 51 57  1  0  0  0  0
 52 53  1  0  0  0  0
 52 56  1  0  0  0  0
 53 54  1  0  0  0  0
 54 55  2  0  0  0  0
M  END
$$$$
mol34_score_23.7350
  PyMOL2.5          3D                             0

 66 70  0  0  1  0  0  0  0  0999 V2000
   -7.7390    2.8760  -22.3100 C   0  0  0  0  0  0  0  0  0  0  0  0
   -8.6700    2.3760  -23.2920 N   0  0  0  0  0  0  0  0  0  0  0  0
   -8.2150    1.8450  -24.4490 C   0  0  0  0  0  0  0  0  0  0  0  0
   -7.0400    1.8240  -24.7850 O   0  0  0  0  0  0  0  0  0  0  0  0
   -9.3230    1.1740  -25.2580 C   0  0  0  0  0  0  0  0  0  0  0  0
   -9.8560    0.0550  -24.4940 N   0  0  0  0  0  0  0  0  0  0  0  0
   -8.9160   -1.0040  -24.1710 C   0  0  0  0  0  0  0  0  0  0  0  0
   -9.2100   -1.7370  -22.8260 C   0  0  2  0  0  0  0  0  0  0  0  0
   -8.6920   -0.8730  -21.6390 C   0  0  0  0  0  0  0  0  0  0  0  0
   -9.2630    0.0760  -21.1340 O   0  0  0  0  0  0  0  0  0  0  0  0
   -7.4540   -1.3450  -21.2600 N   0  0  0  0  0  0  0  0  0  0  0  0
   -6.6790   -0.7610  -20.2210 C   0  0  0  0  0  0  0  0  0  0  0  0
   -6.9900   -0.9980  -18.9060 C   0  0  0  0  0  0  0  0  0  0  0  0
   -6.2640   -0.5430  -17.8550 N   0  0  0  0  0  0  0  0  0  0  0  0
   -5.1950    0.1670  -18.1090 C   0  0  0  0  0  0  0  0  0  0  0  0
   -4.7570    0.4970  -19.4240 C   0  0  0  0  0  0  0  0  0  0  0  0
   -3.6020    1.2910  -19.6570 C   0  0  0  0  0  0  0  0  0  0  0  0
   -3.2230    1.6070  -20.9320 C   0  0  0  0  0  0  0  0  0  0  0  0
   -3.9840    1.1550  -22.0320 C   0  0  0  0  0  0  0  0  0  0  0  0
   -5.1070    0.3860  -21.8310 C   0  0  0  0  0  0  0  0  0  0  0  0
   -5.5200    0.0260  -20.5190 C   0  0  0  0  0  0  0  0  0  0  0  0
   -5.7240    0.1200  -22.6850 H   0  0  0  0  0  0  0  0  0  0  0  0
   -3.6960    1.4340  -23.0410 H   0  0  0  0  0  0  0  0  0  0  0  0
   -2.3490    2.2260  -21.1120 H   0  0  0  0  0  0  0  0  0  0  0  0
   -3.0320    1.6480  -18.8030 H   0  0  0  0  0  0  0  0  0  0  0  0
   -4.6160    0.5270  -17.2560 H   0  0  0  0  0  0  0  0  0  0  0  0
   -7.8630   -1.5970  -18.6610 H   0  0  0  0  0  0  0  0  0  0  0  0
   -7.0010   -2.4930  -22.0220 C   0  0  0  0  0  0  0  0  0  0  0  0
   -8.2910   -2.9890  -22.7040 C   0  0  2  0  0  0  0  0  0  0  0  0
   -8.0090   -3.7200  -24.0090 C   0  0  0  0  0  0  0  0  0  0  0  0
   -7.2680   -4.8880  -23.7460 O   0  0  0  0  0  0  0  0  0  0  0  0
   -7.0710   -5.6820  -24.9100 C   0  0  0  0  0  0  0  0  0  0  0  0
   -5.6980   -6.3240  -24.7990 C   0  0  0  0  0  0  0  0  0  0  0  0
   -5.4830   -6.9380  -25.6800 H   0  0  0  0  0  0  0  0  0  0  0  0
   -4.9180   -5.5620  -24.7090 H   0  0  0  0  0  0  0  0  0  0  0  0
   -5.6670   -6.9610  -23.9100 H   0  0  0  0  0  0  0  0  0  0  0  0
   -8.1830   -6.7190  -25.0090 C   0  0  0  0  0  0  0  0  0  0  0  0
   -8.1640   -7.3500  -24.1160 H   0  0  0  0  0  0  0  0  0  0  0  0
   -9.1700   -6.2480  -25.0700 H   0  0  0  0  0  0  0  0  0  0  0  0
   -8.0500   -7.3510  -25.8940 H   0  0  0  0  0  0  0  0  0  0  0  0
   -7.0930   -5.0320  -25.8010 H   0  0  0  0  0  0  0  0  0  0  0  0
   -8.9580   -3.9540  -24.5200 H   0  0  0  0  0  0  0  0  0  0  0  0
   -7.4150   -3.0760  -24.6800 H   0  0  0  0  0  0  0  0  0  0  0  0
   -8.7660   -3.7030  -22.0280 H   0  0  0  0  0  0  0  0  0  0  0  0
   -6.2240   -2.2200  -22.7570 H   0  0  0  0  0  0  0  0  0  0  0  0
   -6.5690   -3.2470  -21.3590 H   0  0  0  0  0  0  0  0  0  0  0  0
  -10.7110   -1.9780  -22.7080 C   0  0  0  0  0  0  0  0  0  0  0  0
  -11.2460   -2.9570  -21.8550 C   0  0  0  0  0  0  0  0  0  0  0  0
  -12.6160   -3.0390  -21.6500 C   0  0  0  0  0  0  0  0  0  0  0  0
  -13.2660   -4.1840  -20.5140 Cl  0  0  0  0  0  0  0  0  0  0  0  0
  -13.5170   -2.2030  -22.3030 C   0  0  0  0  0  0  0  0  0  0  0  0
  -13.0040   -1.2430  -23.1430 C   0  0  0  0  0  0  0  0  0  0  0  0
  -11.6280   -1.1170  -23.3300 C   0  0  0  0  0  0  0  0  0  0  0  0
  -11.1810    0.0320  -24.1780 C   0  0  0  0  0  0  0  0  0  0  0  0
  -11.9580    0.9080  -24.5360 O   0  0  0  0  0  0  0  0  0  0  0  0
  -13.6520   -0.5390  -23.6510 H   0  0  0  0  0  0  0  0  0  0  0  0
  -14.5830   -2.3000  -22.1230 H   0  0  0  0  0  0  0  0  0  0  0  0
  -10.6100   -3.6510  -21.3170 H   0  0  0  0  0  0  0  0  0  0  0  0
   -8.9100   -1.7220  -24.9970 H   0  0  0  0  0  0  0  0  0  0  0  0
   -7.9210   -0.5500  -24.1260 H   0  0  0  0  0  0  0  0  0  0  0  0
   -8.9090    0.8610  -26.2200 H   0  0  0  0  0  0  0  0  0  0  0  0
  -10.1520    1.8620  -25.4300 H   0  0  0  0  0  0  0  0  0  0  0  0
   -9.5780    2.0830  -22.9660 H   0  0  0  0  0  0  0  0  0  0  0  0
   -7.4410    3.9100  -22.5120 H   0  0  0  0  0  0  0  0  0  0  0  0
   -8.2080    2.8340  -21.3320 H   0  0  0  0  0  0  0  0  0  0  0  0
   -6.8520    2.2390  -22.2920 H   0  0  0  0  0  0  0  0  0  0  0  0
  1  2  1  0  0  0  0
  1 64  1  0  0  0  0
  1 65  1  0  0  0  0
  1 66  1  0  0  0  0
  2  3  1  0  0  0  0
  2 63  1  0  0  0  0
  3  4  2  0  0  0  0
  3  5  1  0  0  0  0
  5  6  1  0  0  0  0
  5 61  1  0  0  0  0
  5 62  1  0  0  0  0
  6  7  1  0  0  0  0
  6 54  1  0  0  0  0
  7  8  1  0  0  0  0
  7 59  1  0  0  0  0
  7 60  1  0  0  0  0
  8  9  1  0  0  0  0
  8 29  1  0  0  0  0
  8 47  1  0  0  0  0
  9 10  2  0  0  0  0
  9 11  1  0  0  0  0
 11 12  1  0  0  0  0
 11 28  1  0  0  0  0
 12 13  2  0  0  0  0
 12 21  1  0  0  0  0
 13 14  1  0  0  0  0
 13 27  1  0  0  0  0
 14 15  2  0  0  0  0
 15 16  1  0  0  0  0
 15 26  1  0  0  0  0
 16 17  1  0  0  0  0
 16 21  2  0  0  0  0
 17 18  2  0  0  0  0
 17 25  1  0  0  0  0
 18 19  1  0  0  0  0
 18 24  1  0  0  0  0
 19 20  2  0  0  0  0
 19 23  1  0  0  0  0
 20 21  1  0  0  0  0
 20 22  1  0  0  0  0
 28 29  1  0  0  0  0
 28 45  1  0  0  0  0
 28 46  1  0  0  0  0
 29 30  1  0  0  0  0
 29 44  1  0  0  0  0
 30 31  1  0  0  0  0
 30 42  1  0  0  0  0
 30 43  1  0  0  0  0
 31 32  1  0  0  0  0
 32 33  1  0  0  0  0
 32 37  1  0  0  0  0
 32 41  1  0  0  0  0
 33 34  1  0  0  0  0
 33 35  1  0  0  0  0
 33 36  1  0  0  0  0
 37 38  1  0  0  0  0
 37 39  1  0  0  0  0
 37 40  1  0  0  0  0
 47 48  1  0  0  0  0
 47 53  2  0  0  0  0
 48 49  2  0  0  0  0
 48 58  1  0  0  0  0
 49 50  1  0  0  0  0
 49 51  1  0  0  0  0
 51 52  2  0  0  0  0
 51 57  1  0  0  0  0
 52 53  1  0  0  0  0
 52 56  1  0  0  0  0
 53 54  1  0  0  0  0
 54 55  2  0  0  0  0
M  END
$$$$
mol36_score_17.3457
  PyMOL2.5          3D                             0

 47 50  0  0  1  0  0  0  0  0999 V2000
   -8.6920    0.6120  -21.3570 O   0  0  0  0  0  0  0  0  0  0  0  0
   -8.3370   -0.3830  -21.9590 C   0  0  0  0  0  0  0  0  0  0  0  0
   -7.4340   -1.4320  -21.2730 C   0  0  0  0  0  0  0  0  0  0  0  0
   -6.5770   -0.8320  -20.1820 C   0  0  0  0  0  0  0  0  0  0  0  0
   -6.8790   -1.0380  -18.8620 C   0  0  0  0  0  0  0  0  0  0  0  0
   -6.1910   -0.5320  -17.8040 N   0  0  0  0  0  0  0  0  0  0  0  0
   -5.1540    0.2200  -18.0680 C   0  0  0  0  0  0  0  0  0  0  0  0
   -4.7210    0.5330  -19.3830 C   0  0  0  0  0  0  0  0  0  0  0  0
   -3.5960    1.3640  -19.6230 C   0  0  0  0  0  0  0  0  0  0  0  0
   -3.2060    1.6550  -20.9020 C   0  0  0  0  0  0  0  0  0  0  0  0
   -3.9290    1.1250  -21.9940 C   0  0  0  0  0  0  0  0  0  0  0  0
   -5.0210    0.3190  -21.7880 C   0  0  0  0  0  0  0  0  0  0  0  0
   -5.4510   -0.0030  -20.4740 C   0  0  0  0  0  0  0  0  0  0  0  0
   -5.5690   -0.0680  -22.6420 H   0  0  0  0  0  0  0  0  0  0  0  0
   -3.6200    1.3690  -23.0050 H   0  0  0  0  0  0  0  0  0  0  0  0
   -2.3510    2.3000  -21.0890 H   0  0  0  0  0  0  0  0  0  0  0  0
   -3.0550    1.7700  -18.7710 H   0  0  0  0  0  0  0  0  0  0  0  0
   -4.6020    0.6240  -17.2160 H   0  0  0  0  0  0  0  0  0  0  0  0
   -7.7290   -1.6580  -18.5820 H   0  0  0  0  0  0  0  0  0  0  0  0
   -8.0860   -2.1980  -20.8320 H   0  0  0  0  0  0  0  0  0  0  0  0
   -6.8080   -1.9520  -22.0120 H   0  0  0  0  0  0  0  0  0  0  0  0
   -8.6770   -0.6030  -23.2870 N   0  0  0  0  0  0  0  0  0  0  0  0
   -9.1590    0.5340  -24.0700 C   0  0  0  0  0  0  0  0  0  0  0  0
  -10.6770    0.5430  -24.2210 C   0  0  0  0  0  0  0  0  0  0  0  0
  -11.1720   -0.7930  -24.7680 C   0  0  0  0  0  0  0  0  0  0  0  0
  -10.6160   -1.9400  -23.9270 C   0  0  0  0  0  0  0  0  0  0  0  0
   -9.0790   -1.9110  -23.8200 C   0  0  1  0  0  0  0  0  0  0  0  0
   -8.3310   -2.2540  -25.1130 C   0  0  0  0  0  0  0  0  0  0  0  0
   -6.9740   -1.9280  -25.2100 C   0  0  0  0  0  0  0  0  0  0  0  0
   -6.2250   -2.2430  -26.3370 C   0  0  0  0  0  0  0  0  0  0  0  0
   -6.8150   -2.9060  -27.4060 C   0  0  0  0  0  0  0  0  0  0  0  0
   -8.1560   -3.2580  -27.3190 C   0  0  0  0  0  0  0  0  0  0  0  0
   -8.9050   -2.9420  -26.1860 C   0  0  0  0  0  0  0  0  0  0  0  0
   -9.9460   -3.2500  -26.1590 H   0  0  0  0  0  0  0  0  0  0  0  0
   -8.6290   -3.7890  -28.1400 H   0  0  0  0  0  0  0  0  0  0  0  0
   -6.2340   -3.1490  -28.2930 H   0  0  0  0  0  0  0  0  0  0  0  0
   -5.1770   -1.9640  -26.3820 H   0  0  0  0  0  0  0  0  0  0  0  0
   -6.4820   -1.4130  -24.3910 H   0  0  0  0  0  0  0  0  0  0  0  0
   -8.7900   -2.6560  -23.0730 H   0  0  0  0  0  0  0  0  0  0  0  0
  -10.9420   -2.9160  -24.2900 H   0  0  0  0  0  0  0  0  0  0  0  0
  -11.0240   -1.8680  -22.9130 H   0  0  0  0  0  0  0  0  0  0  0  0
  -10.8500   -0.9100  -25.8100 H   0  0  0  0  0  0  0  0  0  0  0  0
  -12.2670   -0.8170  -24.7710 H   0  0  0  0  0  0  0  0  0  0  0  0
  -10.9890    1.3660  -24.8780 H   0  0  0  0  0  0  0  0  0  0  0  0
  -11.1160    0.7400  -23.2380 H   0  0  0  0  0  0  0  0  0  0  0  0
   -8.8050    1.4510  -23.5990 H   0  0  0  0  0  0  0  0  0  0  0  0
   -8.7000    0.4720  -25.0630 H   0  0  0  0  0  0  0  0  0  0  0  0
  1  2  2  0  0  0  0
  2  3  1  0  0  0  0
  2 22  1  0  0  0  0
  3  4  1  0  0  0  0
  3 20  1  0  0  0  0
  3 21  1  0  0  0  0
  4  5  2  0  0  0  0
  4 13  1  0  0  0  0
  5  6  1  0  0  0  0
  5 19  1  0  0  0  0
  6  7  2  0  0  0  0
  7  8  1  0  0  0  0
  7 18  1  0  0  0  0
  8  9  1  0  0  0  0
  8 13  2  0  0  0  0
  9 10  2  0  0  0  0
  9 17  1  0  0  0  0
 10 11  1  0  0  0  0
 10 16  1  0  0  0  0
 11 12  2  0  0  0  0
 11 15  1  0  0  0  0
 12 13  1  0  0  0  0
 12 14  1  0  0  0  0
 22 23  1  0  0  0  0
 22 27  1  0  0  0  0
 23 24  1  0  0  0  0
 23 46  1  0  0  0  0
 23 47  1  0  0  0  0
 24 25  1  0  0  0  0
 24 44  1  0  0  0  0
 24 45  1  0  0  0  0
 25 26  1  0  0  0  0
 25 42  1  0  0  0  0
 25 43  1  0  0  0  0
 26 27  1  0  0  0  0
 26 40  1  0  0  0  0
 26 41  1  0  0  0  0
 27 28  1  0  0  0  0
 27 39  1  0  0  0  0
 28 29  2  0  0  0  0
 28 33  1  0  0  0  0
 29 30  1  0  0  0  0
 29 38  1  0  0  0  0
 30 31  2  0  0  0  0
 30 37  1  0  0  0  0
 31 32  1  0  0  0  0
 31 36  1  0  0  0  0
 32 33  2  0  0  0  0
 32 35  1  0  0  0  0
 33 34  1  0  0  0  0
M  END
$$$$
mol37_score_23.8505
  PyMOL2.5          3D                             0

 56 60  0  0  1  0  0  0  0  0999 V2000
  -14.4650   -1.5870  -23.6880 C   0  0  0  0  0  0  0  0  0  0  0  0
  -13.7590   -2.7430  -23.1980 N   0  0  0  0  0  0  0  0  0  0  0  0
  -13.3170   -2.7140  -21.9190 C   0  0  0  0  0  0  0  0  0  0  0  0
  -13.6190   -1.8070  -21.1610 O   0  0  0  0  0  0  0  0  0  0  0  0
  -12.4460   -3.9060  -21.5500 C   0  0  0  0  0  0  0  0  0  0  0  0
  -11.1160   -3.8570  -22.1500 N   0  0  0  0  0  0  0  0  0  0  0  0
   -9.9890   -3.3520  -21.3990 C   0  0  0  0  0  0  0  0  0  0  0  0
   -8.7960   -2.9400  -22.2710 C   0  0  2  0  0  0  0  0  0  0  0  0
   -7.5920   -2.7220  -21.3460 C   0  0  0  0  0  0  0  0  0  0  0  0
   -6.8980   -3.5650  -20.8190 O   0  0  0  0  0  0  0  0  0  0  0  0
   -7.3670   -1.3680  -21.2300 N   0  0  0  0  0  0  0  0  0  0  0  0
   -6.5680   -0.8540  -20.1830 C   0  0  0  0  0  0  0  0  0  0  0  0
   -6.8890   -1.0860  -18.8670 C   0  0  0  0  0  0  0  0  0  0  0  0
   -6.2080   -0.5590  -17.8190 N   0  0  0  0  0  0  0  0  0  0  0  0
   -5.1800    0.2070  -18.0850 C   0  0  0  0  0  0  0  0  0  0  0  0
   -4.7320    0.5090  -19.4020 C   0  0  0  0  0  0  0  0  0  0  0  0
   -3.6070    1.3370  -19.6400 C   0  0  0  0  0  0  0  0  0  0  0  0
   -3.2130    1.6180  -20.9190 C   0  0  0  0  0  0  0  0  0  0  0  0
   -3.9230    1.0840  -22.0190 C   0  0  0  0  0  0  0  0  0  0  0  0
   -5.0120    0.2700  -21.8160 C   0  0  0  0  0  0  0  0  0  0  0  0
   -5.4450   -0.0280  -20.4950 C   0  0  0  0  0  0  0  0  0  0  0  0
   -5.5490   -0.1530  -22.6600 H   0  0  0  0  0  0  0  0  0  0  0  0
   -3.6080    1.3260  -23.0310 H   0  0  0  0  0  0  0  0  0  0  0  0
   -2.3570    2.2620  -21.0990 H   0  0  0  0  0  0  0  0  0  0  0  0
   -3.0890    1.7580  -18.7840 H   0  0  0  0  0  0  0  0  0  0  0  0
   -4.6360    0.6320  -17.2400 H   0  0  0  0  0  0  0  0  0  0  0  0
   -7.7350   -1.7210  -18.6070 H   0  0  0  0  0  0  0  0  0  0  0  0
   -8.3660   -0.5600  -21.9070 C   0  0  0  0  0  0  0  0  0  0  0  0
   -9.0150   -1.5270  -22.9030 C   0  0  2  0  0  0  0  0  0  0  0  0
  -10.4650   -1.1770  -23.2270 C   0  0  0  0  0  0  0  0  0  0  0  0
  -10.9130   -1.9410  -23.8700 H   0  0  0  0  0  0  0  0  0  0  0  0
  -10.5360   -0.2120  -23.7330 H   0  0  0  0  0  0  0  0  0  0  0  0
  -11.0740   -1.1130  -22.3190 H   0  0  0  0  0  0  0  0  0  0  0  0
   -8.4350   -1.5090  -23.8350 H   0  0  0  0  0  0  0  0  0  0  0  0
   -9.1080   -0.1770  -21.1900 H   0  0  0  0  0  0  0  0  0  0  0  0
   -7.9080    0.2990  -22.4040 H   0  0  0  0  0  0  0  0  0  0  0  0
   -8.5160   -4.0100  -23.2980 C   0  0  0  0  0  0  0  0  0  0  0  0
   -7.2600   -4.1120  -23.9020 C   0  0  0  0  0  0  0  0  0  0  0  0
   -7.0270   -5.0200  -24.9220 C   0  0  0  0  0  0  0  0  0  0  0  0
   -8.0540   -5.8650  -25.3540 C   0  0  0  0  0  0  0  0  0  0  0  0
   -9.3060   -5.7740  -24.7700 C   0  0  0  0  0  0  0  0  0  0  0  0
   -9.5330   -4.8410  -23.7520 C   0  0  0  0  0  0  0  0  0  0  0  0
  -10.9070   -4.7130  -23.1930 C   0  0  0  0  0  0  0  0  0  0  0  0
  -11.8330   -5.3410  -23.6680 O   0  0  0  0  0  0  0  0  0  0  0  0
  -10.1270   -6.4090  -25.0910 H   0  0  0  0  0  0  0  0  0  0  0  0
   -7.8680   -6.5700  -26.1620 H   0  0  0  0  0  0  0  0  0  0  0  0
   -6.0490   -5.0610  -25.3970 H   0  0  0  0  0  0  0  0  0  0  0  0
   -6.4630   -3.4580  -23.5660 H   0  0  0  0  0  0  0  0  0  0  0  0
  -10.3070   -2.4900  -20.8150 H   0  0  0  0  0  0  0  0  0  0  0  0
   -9.6550   -4.1180  -20.7120 H   0  0  0  0  0  0  0  0  0  0  0  0
  -12.4340   -4.0440  -20.4650 H   0  0  0  0  0  0  0  0  0  0  0  0
  -12.9150   -4.7600  -22.0320 H   0  0  0  0  0  0  0  0  0  0  0  0
  -13.6120   -3.5730  -23.7520 H   0  0  0  0  0  0  0  0  0  0  0  0
  -13.8090   -0.7090  -23.6530 H   0  0  0  0  0  0  0  0  0  0  0  0
  -15.3090   -1.3800  -23.0300 H   0  0  0  0  0  0  0  0  0  0  0  0
  -14.8100   -1.7500  -24.7090 H   0  0  0  0  0  0  0  0  0  0  0  0
  1  2  1  0  0  0  0
  1 54  1  0  0  0  0
  1 55  1  0  0  0  0
  1 56  1  0  0  0  0
  2  3  1  0  0  0  0
  2 53  1  0  0  0  0
  3  4  2  0  0  0  0
  3  5  1  0  0  0  0
  5  6  1  0  0  0  0
  5 51  1  0  0  0  0
  5 52  1  0  0  0  0
  6  7  1  0  0  0  0
  6 43  1  0  0  0  0
  7  8  1  0  0  0  0
  7 49  1  0  0  0  0
  7 50  1  0  0  0  0
  8  9  1  0  0  0  0
  8 29  1  0  0  0  0
  8 37  1  0  0  0  0
  9 10  2  0  0  0  0
  9 11  1  0  0  0  0
 11 12  1  0  0  0  0
 11 28  1  0  0  0  0
 12 13  2  0  0  0  0
 12 21  1  0  0  0  0
 13 14  1  0  0  0  0
 13 27  1  0  0  0  0
 14 15  2  0  0  0  0
 15 16  1  0  0  0  0
 15 26  1  0  0  0  0
 16 17  1  0  0  0  0
 16 21  2  0  0  0  0
 17 18  2  0  0  0  0
 17 25  1  0  0  0  0
 18 19  1  0  0  0  0
 18 24  1  0  0  0  0
 19 20  2  0  0  0  0
 19 23  1  0  0  0  0
 20 21  1  0  0  0  0
 20 22  1  0  0  0  0
 28 29  1  0  0  0  0
 28 35  1  0  0  0  0
 28 36  1  0  0  0  0
 29 30  1  0  0  0  0
 29 34  1  0  0  0  0
 30 31  1  0  0  0  0
 30 32  1  0  0  0  0
 30 33  1  0  0  0  0
 37 38  1  0  0  0  0
 37 42  2  0  0  0  0
 38 39  2  0  0  0  0
 38 48  1  0  0  0  0
 39 40  1  0  0  0  0
 39 47  1  0  0  0  0
 40 41  2  0  0  0  0
 40 46  1  0  0  0  0
 41 42  1  0  0  0  0
 41 45  1  0  0  0  0
 42 43  1  0  0  0  0
 43 44  2  0  0  0  0
M  END
$$$$
mol38_score_13.3621
  PyMOL2.5          3D                             0

 46 48  0  0  1  0  0  0  0  0999 V2000
   -9.0760   -4.9590  -25.9110 C   0  0  0  0  0  0  0  0  0  0  0  0
   -7.6970   -4.2980  -25.8630 C   0  0  1  0  0  0  0  0  0  0  0  0
   -7.7260   -2.8070  -25.5540 C   0  0  0  0  0  0  0  0  0  0  0  0
   -7.9780   -2.4240  -24.0870 C   0  0  1  0  0  0  0  0  0  0  0  0
   -9.4600   -2.4460  -23.6790 C   0  0  0  0  0  0  0  0  0  0  0  0
   -9.6850   -1.6840  -22.9260 H   0  0  0  0  0  0  0  0  0  0  0  0
  -10.1050   -2.2400  -24.5410 H   0  0  0  0  0  0  0  0  0  0  0  0
   -9.7530   -3.4130  -23.2670 H   0  0  0  0  0  0  0  0  0  0  0  0
   -7.1060   -3.1820  -23.1790 N   0  0  0  0  0  0  0  0  0  0  0  0
   -6.6950   -2.6880  -21.9490 C   0  0  0  0  0  0  0  0  0  0  0  0
   -5.7920   -3.2330  -21.3350 O   0  0  0  0  0  0  0  0  0  0  0  0
   -7.3970   -1.4620  -21.2890 C   0  0  0  0  0  0  0  0  0  0  0  0
   -6.5740   -0.8330  -20.1850 C   0  0  0  0  0  0  0  0  0  0  0  0
   -6.8720   -1.0470  -18.8640 C   0  0  0  0  0  0  0  0  0  0  0  0
   -6.1870   -0.5380  -17.8040 N   0  0  0  0  0  0  0  0  0  0  0  0
   -5.1550    0.2210  -18.0670 C   0  0  0  0  0  0  0  0  0  0  0  0
   -4.7180    0.5310  -19.3810 C   0  0  0  0  0  0  0  0  0  0  0  0
   -3.5910    1.3580  -19.6230 C   0  0  0  0  0  0  0  0  0  0  0  0
   -3.1920    1.6360  -20.9020 C   0  0  0  0  0  0  0  0  0  0  0  0
   -3.9050    1.0940  -21.9930 C   0  0  0  0  0  0  0  0  0  0  0  0
   -4.9990    0.2930  -21.7850 C   0  0  0  0  0  0  0  0  0  0  0  0
   -5.4430   -0.0120  -20.4730 C   0  0  0  0  0  0  0  0  0  0  0  0
   -5.5370   -0.1100  -22.6370 H   0  0  0  0  0  0  0  0  0  0  0  0
   -3.5880    1.3230  -23.0060 H   0  0  0  0  0  0  0  0  0  0  0  0
   -2.3330    2.2750  -21.0900 H   0  0  0  0  0  0  0  0  0  0  0  0
   -3.0530    1.7690  -18.7730 H   0  0  0  0  0  0  0  0  0  0  0  0
   -4.6020    0.6260  -17.2160 H   0  0  0  0  0  0  0  0  0  0  0  0
   -7.7190   -1.6700  -18.5840 H   0  0  0  0  0  0  0  0  0  0  0  0
   -7.6730   -0.6980  -22.0250 H   0  0  0  0  0  0  0  0  0  0  0  0
   -8.3390   -1.8200  -20.8460 H   0  0  0  0  0  0  0  0  0  0  0  0
   -6.8200   -4.6160  -23.4230 C   0  0  1  0  0  0  0  0  0  0  0  0
   -7.7750   -5.5540  -22.6730 C   0  0  0  0  0  0  0  0  0  0  0  0
   -8.8060   -5.4870  -23.0310 H   0  0  0  0  0  0  0  0  0  0  0  0
   -7.7660   -5.3320  -21.6030 H   0  0  0  0  0  0  0  0  0  0  0  0
   -7.4560   -6.5980  -22.7870 H   0  0  0  0  0  0  0  0  0  0  0  0
   -6.6950   -4.9540  -24.9150 C   0  0  0  0  0  0  0  0  0  0  0  0
   -6.7510   -6.0420  -25.0310 H   0  0  0  0  0  0  0  0  0  0  0  0
   -5.6860   -4.6750  -25.2410 H   0  0  0  0  0  0  0  0  0  0  0  0
   -5.8360   -4.7830  -22.9830 H   0  0  0  0  0  0  0  0  0  0  0  0
   -7.6570   -1.3810  -24.0250 H   0  0  0  0  0  0  0  0  0  0  0  0
   -8.4830   -2.3170  -26.1760 H   0  0  0  0  0  0  0  0  0  0  0  0
   -6.7680   -2.3690  -25.8560 H   0  0  0  0  0  0  0  0  0  0  0  0
   -7.2840   -4.4070  -26.8770 H   0  0  0  0  0  0  0  0  0  0  0  0
   -9.6910   -4.5060  -26.6980 H   0  0  0  0  0  0  0  0  0  0  0  0
   -9.6350   -4.8710  -24.9760 H   0  0  0  0  0  0  0  0  0  0  0  0
   -8.9850   -6.0270  -26.1390 H   0  0  0  0  0  0  0  0  0  0  0  0
  1  2  1  0  0  0  0
  1 44  1  0  0  0  0
  1 45  1  0  0  0  0
  1 46  1  0  0  0  0
  2  3  1  0  0  0  0
  2 36  1  0  0  0  0
  2 43  1  0  0  0  0
  3  4  1  0  0  0  0
  3 41  1  0  0  0  0
  3 42  1  0  0  0  0
  4  5  1  0  0  0  0
  4  9  1  0  0  0  0
  4 40  1  0  0  0  0
  5  6  1  0  0  0  0
  5  7  1  0  0  0  0
  5  8  1  0  0  0  0
  9 10  1  0  0  0  0
  9 31  1  0  0  0  0
 10 11  2  0  0  0  0
 10 12  1  0  0  0  0
 12 13  1  0  0  0  0
 12 29  1  0  0  0  0
 12 30  1  0  0  0  0
 13 14  2  0  0  0  0
 13 22  1  0  0  0  0
 14 15  1  0  0  0  0
 14 28  1  0  0  0  0
 15 16  2  0  0  0  0
 16 17  1  0  0  0  0
 16 27  1  0  0  0  0
 17 18  1  0  0  0  0
 17 22  2  0  0  0  0
 18 19  2  0  0  0  0
 18 26  1  0  0  0  0
 19 20  1  0  0  0  0
 19 25  1  0  0  0  0
 20 21  2  0  0  0  0
 20 24  1  0  0  0  0
 21 22  1  0  0  0  0
 21 23  1  0  0  0  0
 31 32  1  0  0  0  0
 31 36  1  0  0  0  0
 31 39  1  0  0  0  0
 32 33  1  0  0  0  0
 32 34  1  0  0  0  0
 32 35  1  0  0  0  0
 36 37  1  0  0  0  0
 36 38  1  0  0  0  0
M  END
$$$$
mol39_score_16.4123
  PyMOL2.5          3D                             0

 40 44  0  0  1  0  0  0  0  0999 V2000
  -10.1690   -0.5080  -25.6910 C   0  0  0  0  0  0  0  0  0  0  0  0
  -10.3120   -2.0030  -25.4640 C   0  0  0  0  0  0  0  0  0  0  0  0
  -10.1280   -2.8410  -26.3310 O   0  0  0  0  0  0  0  0  0  0  0  0
  -10.7140   -2.3750  -24.2030 N   0  0  0  0  0  0  0  0  0  0  0  0
  -10.3870   -3.7540  -23.7460 C   0  0  0  0  0  0  0  0  0  0  0  0
  -10.0400   -3.5070  -22.2810 C   0  0  2  0  0  0  0  0  0  0  0  0
  -11.0570   -2.4160  -21.9130 C   0  0  0  0  0  0  0  0  0  0  0  0
  -10.5640   -1.4760  -23.0340 C   0  0  1  0  0  0  0  0  0  0  0  0
   -9.1340   -1.4280  -22.6820 C   0  0  0  0  0  0  0  0  0  0  0  0
   -8.2310   -0.5300  -22.0290 C   0  0  0  0  0  0  0  0  0  0  0  0
   -8.1760    0.6760  -21.9910 O   0  5  0  0  0  0  0  0  0  0  0  0
   -7.3460   -1.4050  -21.3140 N   0  0  0  0  0  0  0  0  0  0  0  0
   -6.4820   -0.9810  -20.2720 C   0  0  0  0  0  0  0  0  0  0  0  0
   -6.7890   -1.1980  -18.9470 C   0  0  0  0  0  0  0  0  0  0  0  0
   -5.9440   -0.9180  -17.9180 N   0  0  0  0  0  0  0  0  0  0  0  0
   -4.7660   -0.4270  -18.2250 C   0  0  0  0  0  0  0  0  0  0  0  0
   -4.3800   -0.0410  -19.5440 C   0  0  0  0  0  0  0  0  0  0  0  0
   -3.2050    0.7250  -19.8000 C   0  0  0  0  0  0  0  0  0  0  0  0
   -3.0810    1.4220  -20.9690 C   0  0  0  0  0  0  0  0  0  0  0  0
   -4.0030    1.2090  -22.0180 C   0  0  0  0  0  0  0  0  0  0  0  0
   -5.0130    0.2970  -21.8660 C   0  0  0  0  0  0  0  0  0  0  0  0
   -5.2940   -0.2580  -20.5920 C   0  0  0  0  0  0  0  0  0  0  0  0
   -5.6100   -0.0160  -22.7090 H   0  0  0  0  0  0  0  0  0  0  0  0
   -3.8410    1.6770  -22.9800 H   0  0  0  0  0  0  0  0  0  0  0  0
   -2.2170    2.0560  -21.1430 H   0  0  0  0  0  0  0  0  0  0  0  0
   -2.4690    0.8340  -19.0130 H   0  0  0  0  0  0  0  0  0  0  0  0
   -4.0820   -0.2400  -17.3930 H   0  0  0  0  0  0  0  0  0  0  0  0
   -7.7630   -1.5860  -18.6460 H   0  0  0  0  0  0  0  0  0  0  0  0
   -7.6500   -2.7600  -21.5460 C   0  0  0  0  0  0  0  0  0  0  0  0
   -7.0310   -3.7330  -21.1870 O   0  0  0  0  0  0  0  0  0  0  0  0
   -8.7920   -2.7100  -22.3160 N   0  0  0  0  0  0  0  0  0  0  0  0
  -11.0710   -0.5150  -23.1540 H   0  0  0  0  0  0  0  0  0  0  0  0
  -10.8420   -1.9970  -20.9350 H   0  0  0  0  0  0  0  0  0  0  0  0
  -12.1000   -2.7140  -22.0260 H   0  0  0  0  0  0  0  0  0  0  0  0
   -9.9340   -4.3670  -21.6320 H   0  0  0  0  0  0  0  0  0  0  0  0
   -9.5130   -4.1320  -24.2770 H   0  0  0  0  0  0  0  0  0  0  0  0
  -11.2280   -4.4390  -23.8920 H   0  0  0  0  0  0  0  0  0  0  0  0
  -11.1290   -0.0060  -25.5390 H   0  0  0  0  0  0  0  0  0  0  0  0
   -9.4790   -0.0640  -24.9660 H   0  0  0  0  0  0  0  0  0  0  0  0
   -9.8260   -0.3160  -26.7090 H   0  0  0  0  0  0  0  0  0  0  0  0
  1  2  1  0  0  0  0
  1 38  1  0  0  0  0
  1 39  1  0  0  0  0
  1 40  1  0  0  0  0
  2  3  2  0  0  0  0
  2  4  1  0  0  0  0
  4  5  1  0  0  0  0
  4  8  1  0  0  0  0
  5  6  1  0  0  0  0
  5 36  1  0  0  0  0
  5 37  1  0  0  0  0
  6  7  1  0  0  0  0
  6 31  1  0  0  0  0
  6 35  1  0  0  0  0
  7  8  1  0  0  0  0
  7 33  1  0  0  0  0
  7 34  1  0  0  0  0
  8  9  1  0  0  0  0
  8 32  1  0  0  0  0
  9 10  2  0  0  0  0
  9 31  1  0  0  0  0
 10 11  1  0  0  0  0
 10 12  1  0  0  0  0
 12 13  1  0  0  0  0
 12 29  1  0  0  0  0
 13 14  2  0  0  0  0
 13 22  1  0  0  0  0
 14 15  1  0  0  0  0
 14 28  1  0  0  0  0
 15 16  2  0  0  0  0
 16 17  1  0  0  0  0
 16 27  1  0  0  0  0
 17 18  1  0  0  0  0
 17 22  2  0  0  0  0
 18 19  2  0  0  0  0
 18 26  1  0  0  0  0
 19 20  1  0  0  0  0
 19 25  1  0  0  0  0
 20 21  2  0  0  0  0
 20 24  1  0  0  0  0
 21 22  1  0  0  0  0
 21 23  1  0  0  0  0
 29 30  2  0  0  0  0
 29 31  1  0  0  0  0
M  END
$$$$
mol40_score_15.4504
  PyMOL2.5          3D                             0

 40 42  0  0  0  0  0  0  0  0999 V2000
  -12.9220   -1.7130  -25.1810 C   0  0  0  0  0  0  0  0  0  0  0  0
  -11.9770   -1.5760  -23.9810 C   0  0  0  0  0  0  0  0  0  0  0  0
  -10.6700   -2.3670  -24.1310 C   0  0  0  0  0  0  0  0  0  0  0  0
   -9.7910   -2.2240  -22.8880 C   0  0  0  0  0  0  0  0  0  0  0  0
   -9.4750   -0.8010  -22.6730 N   0  0  0  0  0  0  0  0  0  0  0  0
   -8.4720   -0.3950  -21.8090 C   0  0  0  0  0  0  0  0  0  0  0  0
   -8.4030    0.7610  -21.4310 O   0  0  0  0  0  0  0  0  0  0  0  0
   -7.4570   -1.4310  -21.2890 C   0  0  0  0  0  0  0  0  0  0  0  0
   -6.5900   -0.8500  -20.1980 C   0  0  0  0  0  0  0  0  0  0  0  0
   -6.8970   -1.0600  -18.8800 C   0  0  0  0  0  0  0  0  0  0  0  0
   -6.2210   -0.5530  -17.8170 N   0  0  0  0  0  0  0  0  0  0  0  0
   -5.1860    0.2080  -18.0810 C   0  0  0  0  0  0  0  0  0  0  0  0
   -4.7550    0.5290  -19.3940 C   0  0  0  0  0  0  0  0  0  0  0  0
   -3.6290    1.3590  -19.6240 C   0  0  0  0  0  0  0  0  0  0  0  0
   -3.2430    1.6590  -20.9030 C   0  0  0  0  0  0  0  0  0  0  0  0
   -3.9660    1.1430  -21.9980 C   0  0  0  0  0  0  0  0  0  0  0  0
   -5.0590    0.3370  -21.8010 C   0  0  0  0  0  0  0  0  0  0  0  0
   -5.4780   -0.0020  -20.4870 C   0  0  0  0  0  0  0  0  0  0  0  0
   -5.6160   -0.0350  -22.6540 H   0  0  0  0  0  0  0  0  0  0  0  0
   -3.6440    1.3840  -23.0060 H   0  0  0  0  0  0  0  0  0  0  0  0
   -2.3810    2.2920  -21.0820 H   0  0  0  0  0  0  0  0  0  0  0  0
   -3.0880    1.7510  -18.7700 H   0  0  0  0  0  0  0  0  0  0  0  0
   -4.6350    0.6150  -17.2340 H   0  0  0  0  0  0  0  0  0  0  0  0
   -7.7520   -1.6840  -18.6150 H   0  0  0  0  0  0  0  0  0  0  0  0
   -6.8460   -1.8060  -22.1210 H   0  0  0  0  0  0  0  0  0  0  0  0
   -8.0180   -2.2890  -20.8850 H   0  0  0  0  0  0  0  0  0  0  0  0
  -10.6740    0.0490  -22.5760 C   0  0  0  0  0  0  0  0  0  0  0  0
  -11.6250   -0.1070  -23.7470 C   0  0  0  0  0  0  0  0  0  0  0  0
  -12.5410    0.4590  -23.5420 H   0  0  0  0  0  0  0  0  0  0  0  0
  -11.2030    0.3140  -24.6730 H   0  0  0  0  0  0  0  0  0  0  0  0
  -11.1990   -0.2150  -21.6510 H   0  0  0  0  0  0  0  0  0  0  0  0
  -10.3380    1.0820  -22.4770 H   0  0  0  0  0  0  0  0  0  0  0  0
   -8.8740   -2.8140  -23.0220 H   0  0  0  0  0  0  0  0  0  0  0  0
  -10.3160   -2.6550  -22.0130 H   0  0  0  0  0  0  0  0  0  0  0  0
  -10.1050   -2.0000  -24.9970 H   0  0  0  0  0  0  0  0  0  0  0  0
  -10.8670   -3.4250  -24.3400 H   0  0  0  0  0  0  0  0  0  0  0  0
  -12.4990   -1.9420  -23.0790 H   0  0  0  0  0  0  0  0  0  0  0  0
  -12.4850   -1.2600  -26.0800 H   0  0  0  0  0  0  0  0  0  0  0  0
  -13.8640   -1.1870  -24.9850 H   0  0  0  0  0  0  0  0  0  0  0  0
  -13.1640   -2.7580  -25.4180 H   0  0  0  0  0  0  0  0  0  0  0  0
  1  2  1  0  0  0  0
  1 38  1  0  0  0  0
  1 39  1  0  0  0  0
  1 40  1  0  0  0  0
  2  3  1  0  0  0  0
  2 28  1  0  0  0  0
  2 37  1  0  0  0  0
  3  4  1  0  0  0  0
  3 35  1  0  0  0  0
  3 36  1  0  0  0  0
  4  5  1  0  0  0  0
  4 33  1  0  0  0  0
  4 34  1  0  0  0  0
  5  6  1  0  0  0  0
  5 27  1  0  0  0  0
  6  7  2  0  0  0  0
  6  8  1  0  0  0  0
  8  9  1  0  0  0  0
  8 25  1  0  0  0  0
  8 26  1  0  0  0  0
  9 10  2  0  0  0  0
  9 18  1  0  0  0  0
 10 11  1  0  0  0  0
 10 24  1  0  0  0  0
 11 12  2  0  0  0  0
 12 13  1  0  0  0  0
 12 23  1  0  0  0  0
 13 14  1  0  0  0  0
 13 18  2  0  0  0  0
 14 15  2  0  0  0  0
 14 22  1  0  0  0  0
 15 16  1  0  0  0  0
 15 21  1  0  0  0  0
 16 17  2  0  0  0  0
 16 20  1  0  0  0  0
 17 18  1  0  0  0  0
 17 19  1  0  0  0  0
 27 28  1  0  0  0  0
 27 31  1  0  0  0  0
 27 32  1  0  0  0  0
 28 29  1  0  0  0  0
 28 30  1  0  0  0  0
M  END
$$$$
mol43_score_27.1089
  PyMOL2.5          3D                             0

 67 72  0  0  1  0  0  0  0  0999 V2000
   -7.7560    3.2570  -22.4910 C   0  0  0  0  0  0  0  0  0  0  0  0
   -8.5730    2.7360  -23.5640 N   0  0  0  0  0  0  0  0  0  0  0  0
   -7.9570    2.0520  -24.5610 C   0  0  0  0  0  0  0  0  0  0  0  0
   -6.7450    2.0140  -24.6900 O   0  0  0  0  0  0  0  0  0  0  0  0
   -8.8990    1.2790  -25.4770 C   0  0  0  0  0  0  0  0  0  0  0  0
   -9.5500    0.2150  -24.7280 N   0  0  0  0  0  0  0  0  0  0  0  0
   -8.7010   -0.8920  -24.3270 C   0  0  0  0  0  0  0  0  0  0  0  0
   -9.1050   -1.5690  -22.9780 C   0  0  2  0  0  0  0  0  0  0  0  0
   -8.5710   -0.7170  -21.7930 C   0  0  0  0  0  0  0  0  0  0  0  0
   -9.0490    0.3200  -21.3820 O   0  0  0  0  0  0  0  0  0  0  0  0
   -7.4440   -1.3240  -21.2850 N   0  0  0  0  0  0  0  0  0  0  0  0
   -6.6670   -0.7500  -20.2390 C   0  0  0  0  0  0  0  0  0  0  0  0
   -6.9760   -1.0020  -18.9280 C   0  0  0  0  0  0  0  0  0  0  0  0
   -6.2560   -0.5530  -17.8690 N   0  0  0  0  0  0  0  0  0  0  0  0
   -5.1930    0.1690  -18.1120 C   0  0  0  0  0  0  0  0  0  0  0  0
   -4.7530    0.5130  -19.4220 C   0  0  0  0  0  0  0  0  0  0  0  0
   -3.5950    1.3070  -19.6500 C   0  0  0  0  0  0  0  0  0  0  0  0
   -3.2160    1.6270  -20.9240 C   0  0  0  0  0  0  0  0  0  0  0  0
   -3.9770    1.1840  -22.0290 C   0  0  0  0  0  0  0  0  0  0  0  0
   -5.1080    0.4280  -21.8340 C   0  0  0  0  0  0  0  0  0  0  0  0
   -5.5160    0.0540  -20.5230 C   0  0  0  0  0  0  0  0  0  0  0  0
   -5.7170    0.1390  -22.6860 H   0  0  0  0  0  0  0  0  0  0  0  0
   -3.6720    1.4500  -23.0370 H   0  0  0  0  0  0  0  0  0  0  0  0
   -2.3400    2.2450  -21.0980 H   0  0  0  0  0  0  0  0  0  0  0  0
   -3.0300    1.6600  -18.7920 H   0  0  0  0  0  0  0  0  0  0  0  0
   -4.6220    0.5270  -17.2520 H   0  0  0  0  0  0  0  0  0  0  0  0
   -7.8470   -1.6060  -18.6830 H   0  0  0  0  0  0  0  0  0  0  0  0
   -7.0480   -2.5270  -21.9880 C   0  0  0  0  0  0  0  0  0  0  0  0
   -8.3230   -2.8990  -22.7710 C   0  0  2  0  0  0  0  0  0  0  0  0
   -8.0250   -3.7150  -24.0360 C   0  0  0  0  0  0  0  0  0  0  0  0
   -7.5430   -5.0330  -23.7150 N   0  0  0  0  0  0  0  0  0  0  0  0
   -6.2500   -5.4570  -23.8700 C   0  0  0  0  0  0  0  0  0  0  0  0
   -5.0290   -4.5080  -24.6820 S   0  0  0  0  0  0  0  0  0  0  0  0
   -3.8860   -5.7730  -24.3330 C   0  0  0  0  0  0  0  0  0  0  0  0
   -4.3620   -6.7840  -23.6850 N   0  0  0  0  0  0  0  0  0  0  0  0
   -5.7080   -6.6240  -23.4170 C   0  0  0  0  0  0  0  0  0  0  0  0
   -6.4660   -7.6620  -22.6430 C   0  0  0  0  0  0  0  0  0  0  0  0
   -7.2510   -8.1430  -23.2430 H   0  0  0  0  0  0  0  0  0  0  0  0
   -6.9550   -7.2170  -21.7680 H   0  0  0  0  0  0  0  0  0  0  0  0
   -5.7760   -8.4370  -22.2970 H   0  0  0  0  0  0  0  0  0  0  0  0
   -2.8580   -5.6860  -24.6690 H   0  0  0  0  0  0  0  0  0  0  0  0
   -8.2190   -5.7050  -23.3890 H   0  0  0  0  0  0  0  0  0  0  0  0
   -8.9310   -3.7980  -24.6500 H   0  0  0  0  0  0  0  0  0  0  0  0
   -7.2590   -3.2150  -24.6380 H   0  0  0  0  0  0  0  0  0  0  0  0
   -8.9340   -3.5260  -22.1130 H   0  0  0  0  0  0  0  0  0  0  0  0
   -6.1770   -2.3480  -22.6430 H   0  0  0  0  0  0  0  0  0  0  0  0
   -6.7510   -3.3020  -21.2750 H   0  0  0  0  0  0  0  0  0  0  0  0
  -10.6210   -1.6650  -22.8830 C   0  0  0  0  0  0  0  0  0  0  0  0
  -11.2490   -2.5660  -22.0120 C   0  0  0  0  0  0  0  0  0  0  0  0
  -12.6290   -2.5800  -21.8950 C   0  0  0  0  0  0  0  0  0  0  0  0
  -13.3840   -3.7240  -20.8250 Cl  0  0  0  0  0  0  0  0  0  0  0  0
  -13.4410   -1.6870  -22.5920 C   0  0  0  0  0  0  0  0  0  0  0  0
  -12.8270   -0.7530  -23.3960 C   0  0  0  0  0  0  0  0  0  0  0  0
  -11.4390   -0.7330  -23.5370 C   0  0  0  0  0  0  0  0  0  0  0  0
  -10.8500    0.3740  -24.3540 C   0  0  0  0  0  0  0  0  0  0  0  0
  -11.4980    1.3710  -24.6490 O   0  0  0  0  0  0  0  0  0  0  0  0
  -13.4010   -0.0010  -23.9230 H   0  0  0  0  0  0  0  0  0  0  0  0
  -14.5210   -1.7170  -22.4740 H   0  0  0  0  0  0  0  0  0  0  0  0
  -10.6830   -3.2500  -21.3890 H   0  0  0  0  0  0  0  0  0  0  0  0
   -7.6920   -0.4800  -24.2240 H   0  0  0  0  0  0  0  0  0  0  0  0
   -8.6690   -1.6240  -25.1430 H   0  0  0  0  0  0  0  0  0  0  0  0
   -8.2950    0.8790  -26.2970 H   0  0  0  0  0  0  0  0  0  0  0  0
   -9.6980    1.9130  -25.8660 H   0  0  0  0  0  0  0  0  0  0  0  0
   -9.5140    2.4770  -23.3170 H   0  0  0  0  0  0  0  0  0  0  0  0
   -7.4260    2.4340  -21.8370 H   0  0  0  0  0  0  0  0  0  0  0  0
   -6.8710    3.7150  -22.9400 H   0  0  0  0  0  0  0  0  0  0  0  0
   -8.3300    3.9980  -21.9250 H   0  0  0  0  0  0  0  0  0  0  0  0
  1  2  1  0  0  0  0
  1 65  1  0  0  0  0
  1 66  1  0  0  0  0
  1 67  1  0  0  0  0
  2  3  1  0  0  0  0
  2 64  1  0  0  0  0
  3  4  2  0  0  0  0
  3  5  1  0  0  0  0
  5  6  1  0  0  0  0
  5 62  1  0  0  0  0
  5 63  1  0  0  0  0
  6  7  1  0  0  0  0
  6 55  1  0  0  0  0
  7  8  1  0  0  0  0
  7 60  1  0  0  0  0
  7 61  1  0  0  0  0
  8  9  1  0  0  0  0
  8 29  1  0  0  0  0
  8 48  1  0  0  0  0
  9 10  2  0  0  0  0
  9 11  1  0  0  0  0
 11 12  1  0  0  0  0
 11 28  1  0  0  0  0
 12 13  2  0  0  0  0
 12 21  1  0  0  0  0
 13 14  1  0  0  0  0
 13 27  1  0  0  0  0
 14 15  2  0  0  0  0
 15 16  1  0  0  0  0
 15 26  1  0  0  0  0
 16 17  1  0  0  0  0
 16 21  2  0  0  0  0
 17 18  2  0  0  0  0
 17 25  1  0  0  0  0
 18 19  1  0  0  0  0
 18 24  1  0  0  0  0
 19 20  2  0  0  0  0
 19 23  1  0  0  0  0
 20 21  1  0  0  0  0
 20 22  1  0  0  0  0
 28 29  1  0  0  0  0
 28 46  1  0  0  0  0
 28 47  1  0  0  0  0
 29 30  1  0  0  0  0
 29 45  1  0  0  0  0
 30 31  1  0  0  0  0
 30 43  1  0  0  0  0
 30 44  1  0  0  0  0
 31 32  1  0  0  0  0
 31 42  1  0  0  0  0
 32 33  1  0  0  0  0
 32 36  2  0  0  0  0
 33 34  1  0  0  0  0
 34 35  2  0  0  0  0
 34 41  1  0  0  0  0
 35 36  1  0  0  0  0
 36 37  1  0  0  0  0
 37 38  1  0  0  0  0
 37 39  1  0  0  0  0
 37 40  1  0  0  0  0
 48 49  1  0  0  0  0
 48 54  2  0  0  0  0
 49 50  2  0  0  0  0
 49 59  1  0  0  0  0
 50 51  1  0  0  0  0
 50 52  1  0  0  0  0
 52 53  2  0  0  0  0
 52 58  1  0  0  0  0
 53 54  1  0  0  0  0
 53 57  1  0  0  0  0
 54 55  1  0  0  0  0
 55 56  2  0  0  0  0
M  END
$$$$
mol44_score_23.8089
  PyMOL2.5          3D                             0

 60 64  0  0  1  0  0  0  0  0999 V2000
  -14.9610   -2.1370  -23.8880 C   0  0  0  0  0  0  0  0  0  0  0  0
  -14.1470   -3.0710  -23.1580 N   0  0  0  0  0  0  0  0  0  0  0  0
  -13.2910   -2.6340  -22.1970 C   0  0  0  0  0  0  0  0  0  0  0  0
  -13.2200   -1.4640  -21.8520 O   0  0  0  0  0  0  0  0  0  0  0  0
  -12.4370   -3.7760  -21.6530 C   0  0  0  0  0  0  0  0  0  0  0  0
  -11.1070   -3.7950  -22.2450 N   0  0  0  0  0  0  0  0  0  0  0  0
   -9.9580   -3.3270  -21.4800 C   0  0  0  0  0  0  0  0  0  0  0  0
   -8.7760   -2.8820  -22.3670 C   0  0  2  0  0  0  0  0  0  0  0  0
   -7.5600   -2.6770  -21.4540 C   0  0  0  0  0  0  0  0  0  0  0  0
   -6.8360   -3.5270  -20.9850 O   0  0  0  0  0  0  0  0  0  0  0  0
   -7.4020   -1.3250  -21.2400 N   0  0  0  0  0  0  0  0  0  0  0  0
   -6.5830   -0.8450  -20.1950 C   0  0  0  0  0  0  0  0  0  0  0  0
   -6.8950   -1.1080  -18.8860 C   0  0  0  0  0  0  0  0  0  0  0  0
   -6.2170   -0.5860  -17.8350 N   0  0  0  0  0  0  0  0  0  0  0  0
   -5.1940    0.1880  -18.0930 C   0  0  0  0  0  0  0  0  0  0  0  0
   -4.7460    0.5070  -19.4070 C   0  0  0  0  0  0  0  0  0  0  0  0
   -3.6160    1.3290  -19.6470 C   0  0  0  0  0  0  0  0  0  0  0  0
   -3.2230    1.6030  -20.9260 C   0  0  0  0  0  0  0  0  0  0  0  0
   -3.9300    1.0700  -22.0270 C   0  0  0  0  0  0  0  0  0  0  0  0
   -5.0280    0.2680  -21.8240 C   0  0  0  0  0  0  0  0  0  0  0  0
   -5.4600   -0.0210  -20.5020 C   0  0  0  0  0  0  0  0  0  0  0  0
   -5.5690   -0.1520  -22.6650 H   0  0  0  0  0  0  0  0  0  0  0  0
   -3.6090    1.3000  -23.0380 H   0  0  0  0  0  0  0  0  0  0  0  0
   -2.3630    2.2410  -21.1100 H   0  0  0  0  0  0  0  0  0  0  0  0
   -3.0790    1.7270  -18.7910 H   0  0  0  0  0  0  0  0  0  0  0  0
   -4.6580    0.6070  -17.2400 H   0  0  0  0  0  0  0  0  0  0  0  0
   -7.7360   -1.7530  -18.6390 H   0  0  0  0  0  0  0  0  0  0  0  0
   -8.4030   -0.4960  -21.8890 C   0  0  0  0  0  0  0  0  0  0  0  0
   -8.9860   -1.4440  -22.9480 C   0  0  2  0  0  0  0  0  0  0  0  0
  -10.4250   -1.1260  -23.3140 C   0  0  0  0  0  0  0  0  0  0  0  0
  -10.5220    0.1190  -23.9610 O   0  0  0  0  0  0  0  0  0  0  0  0
  -11.8790    0.3590  -24.2560 C   0  0  0  0  0  0  0  0  0  0  0  0
  -12.4860    0.3820  -23.3390 H   0  0  0  0  0  0  0  0  0  0  0  0
  -12.2720   -0.4510  -24.8900 H   0  0  0  0  0  0  0  0  0  0  0  0
  -11.9580    1.3080  -24.7900 H   0  0  0  0  0  0  0  0  0  0  0  0
  -10.8020   -1.9150  -23.9800 H   0  0  0  0  0  0  0  0  0  0  0  0
  -11.0650   -1.1180  -22.4190 H   0  0  0  0  0  0  0  0  0  0  0  0
   -8.3790   -1.3690  -23.8580 H   0  0  0  0  0  0  0  0  0  0  0  0
   -9.1630   -0.1600  -21.1650 H   0  0  0  0  0  0  0  0  0  0  0  0
   -7.9540    0.3980  -22.3310 H   0  0  0  0  0  0  0  0  0  0  0  0
   -8.5350   -3.9370  -23.4130 C   0  0  0  0  0  0  0  0  0  0  0  0
   -7.2680   -4.0960  -23.9770 C   0  0  0  0  0  0  0  0  0  0  0  0
   -7.0630   -5.0470  -24.9580 C   0  0  0  0  0  0  0  0  0  0  0  0
   -5.4720   -5.2300  -25.6380 Cl  0  0  0  0  0  0  0  0  0  0  0  0
   -8.0990   -5.8650  -25.4070 C   0  0  0  0  0  0  0  0  0  0  0  0
   -9.3640   -5.6750  -24.8840 C   0  0  0  0  0  0  0  0  0  0  0  0
   -9.5830   -4.7220  -23.8940 C   0  0  0  0  0  0  0  0  0  0  0  0
  -10.9700   -4.5360  -23.3830 C   0  0  0  0  0  0  0  0  0  0  0  0
  -11.9400   -5.0150  -23.9640 O   0  0  0  0  0  0  0  0  0  0  0  0
  -10.2130   -6.2500  -25.2370 H   0  0  0  0  0  0  0  0  0  0  0  0
   -7.9080   -6.6370  -26.1440 H   0  0  0  0  0  0  0  0  0  0  0  0
   -6.4370   -3.4960  -23.6290 H   0  0  0  0  0  0  0  0  0  0  0  0
   -9.6150   -4.1110  -20.8060 H   0  0  0  0  0  0  0  0  0  0  0  0
  -10.2380   -2.4690  -20.8590 H   0  0  0  0  0  0  0  0  0  0  0  0
  -12.9760   -4.6720  -21.9530 H   0  0  0  0  0  0  0  0  0  0  0  0
  -12.3740   -3.7680  -20.5660 H   0  0  0  0  0  0  0  0  0  0  0  0
  -13.8780   -3.9190  -23.6280 H   0  0  0  0  0  0  0  0  0  0  0  0
  -15.5100   -1.5390  -23.1680 H   0  0  0  0  0  0  0  0  0  0  0  0
  -15.6440   -2.6840  -24.5410 H   0  0  0  0  0  0  0  0  0  0  0  0
  -14.3790   -1.4410  -24.4990 H   0  0  0  0  0  0  0  0  0  0  0  0
  1  2  1  0  0  0  0
  1 58  1  0  0  0  0
  1 59  1  0  0  0  0
  1 60  1  0  0  0  0
  2  3  1  0  0  0  0
  2 57  1  0  0  0  0
  3  4  2  0  0  0  0
  3  5  1  0  0  0  0
  5  6  1  0  0  0  0
  5 55  1  0  0  0  0
  5 56  1  0  0  0  0
  6  7  1  0  0  0  0
  6 48  1  0  0  0  0
  7  8  1  0  0  0  0
  7 53  1  0  0  0  0
  7 54  1  0  0  0  0
  8  9  1  0  0  0  0
  8 29  1  0  0  0  0
  8 41  1  0  0  0  0
  9 10  2  0  0  0  0
  9 11  1  0  0  0  0
 11 12  1  0  0  0  0
 11 28  1  0  0  0  0
 12 13  2  0  0  0  0
 12 21  1  0  0  0  0
 13 14  1  0  0  0  0
 13 27  1  0  0  0  0
 14 15  2  0  0  0  0
 15 16  1  0  0  0  0
 15 26  1  0  0  0  0
 16 17  1  0  0  0  0
 16 21  2  0  0  0  0
 17 18  2  0  0  0  0
 17 25  1  0  0  0  0
 18 19  1  0  0  0  0
 18 24  1  0  0  0  0
 19 20  2  0  0  0  0
 19 23  1  0  0  0  0
 20 21  1  0  0  0  0
 20 22  1  0  0  0  0
 28 29  1  0  0  0  0
 28 39  1  0  0  0  0
 28 40  1  0  0  0  0
 29 30  1  0  0  0  0
 29 38  1  0  0  0  0
 30 31  1  0  0  0  0
 30 36  1  0  0  0  0
 30 37  1  0  0  0  0
 31 32  1  0  0  0  0
 32 33  1  0  0  0  0
 32 34  1  0  0  0  0
 32 35  1  0  0  0  0
 41 42  1  0  0  0  0
 41 47  2  0  0  0  0
 42 43  2  0  0  0  0
 42 52  1  0  0  0  0
 43 44  1  0  0  0  0
 43 45  1  0  0  0  0
 45 46  2  0  0  0  0
 45 51  1  0  0  0  0
 46 47  1  0  0  0  0
 46 50  1  0  0  0  0
 47 48  1  0  0  0  0
 48 49  2  0  0  0  0
M  END
$$$$
mol45_score_25.4889
  PyMOL2.5          3D                             0

 66 71  0  0  1  0  0  0  0  0999 V2000
   -7.4410    3.3390  -21.7310 C   0  0  0  0  0  0  0  0  0  0  0  0
   -8.3390    2.8990  -22.7800 N   0  0  0  0  0  0  0  0  0  0  0  0
   -7.7870    2.2140  -23.8090 C   0  0  0  0  0  0  0  0  0  0  0  0
   -6.5740    2.1160  -23.9450 O   0  0  0  0  0  0  0  0  0  0  0  0
   -8.7370    1.5900  -24.8280 C   0  0  0  0  0  0  0  0  0  0  0  0
   -9.4440    0.4270  -24.3380 N   0  0  0  0  0  0  0  0  0  0  0  0
   -8.7030   -0.8110  -24.1980 C   0  0  0  0  0  0  0  0  0  0  0  0
   -9.0660   -1.5380  -22.8850 C   0  0  2  0  0  0  0  0  0  0  0  0
   -8.5270   -0.7510  -21.6620 C   0  0  0  0  0  0  0  0  0  0  0  0
   -9.0010    0.2560  -21.1680 O   0  0  0  0  0  0  0  0  0  0  0  0
   -7.3960   -1.3820  -21.2030 N   0  0  0  0  0  0  0  0  0  0  0  0
   -6.6010   -0.8120  -20.1740 C   0  0  0  0  0  0  0  0  0  0  0  0
   -6.9090   -1.0440  -18.8580 C   0  0  0  0  0  0  0  0  0  0  0  0
   -6.2030   -0.5490  -17.8140 N   0  0  0  0  0  0  0  0  0  0  0  0
   -5.1670    0.2070  -18.0790 C   0  0  0  0  0  0  0  0  0  0  0  0
   -4.7320    0.5320  -19.3950 C   0  0  0  0  0  0  0  0  0  0  0  0
   -3.6090    1.3700  -19.6390 C   0  0  0  0  0  0  0  0  0  0  0  0
   -3.2300    1.6670  -20.9190 C   0  0  0  0  0  0  0  0  0  0  0  0
   -3.9540    1.1410  -22.0130 C   0  0  0  0  0  0  0  0  0  0  0  0
   -5.0420    0.3280  -21.8030 C   0  0  0  0  0  0  0  0  0  0  0  0
   -5.4660    0.0030  -20.4850 C   0  0  0  0  0  0  0  0  0  0  0  0
   -5.6000   -0.0580  -22.6510 H   0  0  0  0  0  0  0  0  0  0  0  0
   -3.6540    1.3830  -23.0260 H   0  0  0  0  0  0  0  0  0  0  0  0
   -2.3710    2.3070  -21.1020 H   0  0  0  0  0  0  0  0  0  0  0  0
   -3.0710    1.7710  -18.7840 H   0  0  0  0  0  0  0  0  0  0  0  0
   -4.6160    0.6090  -17.2280 H   0  0  0  0  0  0  0  0  0  0  0  0
   -7.7620   -1.6670  -18.6010 H   0  0  0  0  0  0  0  0  0  0  0  0
   -7.0480   -2.5850  -21.9340 C   0  0  0  0  0  0  0  0  0  0  0  0
   -8.3160   -2.9000  -22.7480 C   0  0  2  0  0  0  0  0  0  0  0  0
   -8.0210   -3.6760  -24.0480 C   0  0  0  0  0  0  0  0  0  0  0  0
   -7.4640   -5.0600  -23.7890 C   0  0  0  0  0  0  0  0  0  0  0  0
   -6.0870   -5.3050  -23.7770 C   0  0  0  0  0  0  0  0  0  0  0  0
   -5.5860   -6.5750  -23.4970 C   0  0  0  0  0  0  0  0  0  0  0  0
   -6.4590   -7.6250  -23.2230 C   0  0  0  0  0  0  0  0  0  0  0  0
   -7.8320   -7.3990  -23.2460 C   0  0  0  0  0  0  0  0  0  0  0  0
   -8.3270   -6.1250  -23.5160 C   0  0  0  0  0  0  0  0  0  0  0  0
   -9.4020   -5.9390  -23.5130 H   0  0  0  0  0  0  0  0  0  0  0  0
   -8.5150   -8.2240  -23.0510 H   0  0  0  0  0  0  0  0  0  0  0  0
   -6.0740   -8.6160  -22.9920 H   0  0  0  0  0  0  0  0  0  0  0  0
   -4.5120   -6.7500  -23.4940 H   0  0  0  0  0  0  0  0  0  0  0  0
   -5.3980   -4.4880  -23.9910 H   0  0  0  0  0  0  0  0  0  0  0  0
   -8.9470   -3.7590  -24.6360 H   0  0  0  0  0  0  0  0  0  0  0  0
   -7.3060   -3.1050  -24.6560 H   0  0  0  0  0  0  0  0  0  0  0  0
   -8.9560   -3.5410  -22.1360 H   0  0  0  0  0  0  0  0  0  0  0  0
   -6.7820   -3.3990  -21.2500 H   0  0  0  0  0  0  0  0  0  0  0  0
   -6.1840   -2.4130  -22.5940 H   0  0  0  0  0  0  0  0  0  0  0  0
  -10.5770   -1.6190  -22.8120 C   0  0  0  0  0  0  0  0  0  0  0  0
  -11.1690   -2.5210  -21.9290 C   0  0  0  0  0  0  0  0  0  0  0  0
  -12.5390   -2.5440  -21.7660 C   0  0  0  0  0  0  0  0  0  0  0  0
  -13.1690   -3.5620  -20.5030 Cl  0  0  0  0  0  0  0  0  0  0  0  0
  -13.3740   -1.7160  -22.5180 C   0  0  0  0  0  0  0  0  0  0  0  0
  -12.7920   -0.7830  -23.3570 C   0  0  0  0  0  0  0  0  0  0  0  0
  -11.4040   -0.7010  -23.4720 C   0  0  0  0  0  0  0  0  0  0  0  0
  -10.8110    0.4500  -24.2260 C   0  0  0  0  0  0  0  0  0  0  0  0
  -11.5000    1.3580  -24.6700 O   0  0  0  0  0  0  0  0  0  0  0  0
  -13.3860   -0.0630  -23.9100 H   0  0  0  0  0  0  0  0  0  0  0  0
  -14.4510   -1.7830  -22.4210 H   0  0  0  0  0  0  0  0  0  0  0  0
  -10.5710   -3.1840  -21.3170 H   0  0  0  0  0  0  0  0  0  0  0  0
   -7.6370   -0.5580  -24.2000 H   0  0  0  0  0  0  0  0  0  0  0  0
   -8.9230   -1.4860  -25.0410 H   0  0  0  0  0  0  0  0  0  0  0  0
   -8.1130    1.3310  -25.6940 H   0  0  0  0  0  0  0  0  0  0  0  0
   -9.5140    2.2950  -25.1170 H   0  0  0  0  0  0  0  0  0  0  0  0
   -9.3240    2.7900  -22.5940 H   0  0  0  0  0  0  0  0  0  0  0  0
   -8.0120    3.7320  -20.8950 H   0  0  0  0  0  0  0  0  0  0  0  0
   -6.7740    4.1180  -22.1080 H   0  0  0  0  0  0  0  0  0  0  0  0
   -6.8210    2.4960  -21.4020 H   0  0  0  0  0  0  0  0  0  0  0  0
  1  2  1  0  0  0  0
  1 64  1  0  0  0  0
  1 65  1  0  0  0  0
  1 66  1  0  0  0  0
  2  3  1  0  0  0  0
  2 63  1  0  0  0  0
  3  4  2  0  0  0  0
  3  5  1  0  0  0  0
  5  6  1  0  0  0  0
  5 61  1  0  0  0  0
  5 62  1  0  0  0  0
  6  7  1  0  0  0  0
  6 54  1  0  0  0  0
  7  8  1  0  0  0  0
  7 59  1  0  0  0  0
  7 60  1  0  0  0  0
  8  9  1  0  0  0  0
  8 29  1  0  0  0  0
  8 47  1  0  0  0  0
  9 10  2  0  0  0  0
  9 11  1  0  0  0  0
 11 12  1  0  0  0  0
 11 28  1  0  0  0  0
 12 13  2  0  0  0  0
 12 21  1  0  0  0  0
 13 14  1  0  0  0  0
 13 27  1  0  0  0  0
 14 15  2  0  0  0  0
 15 16  1  0  0  0  0
 15 26  1  0  0  0  0
 16 17  1  0  0  0  0
 16 21  2  0  0  0  0
 17 18  2  0  0  0  0
 17 25  1  0  0  0  0
 18 19  1  0  0  0  0
 18 24  1  0  0  0  0
 19 20  2  0  0  0  0
 19 23  1  0  0  0  0
 20 21  1  0  0  0  0
 20 22  1  0  0  0  0
 28 29  1  0  0  0  0
 28 45  1  0  0  0  0
 28 46  1  0  0  0  0
 29 30  1  0  0  0  0
 29 44  1  0  0  0  0
 30 31  1  0  0  0  0
 30 42  1  0  0  0  0
 30 43  1  0  0  0  0
 31 32  2  0  0  0  0
 31 36  1  0  0  0  0
 32 33  1  0  0  0  0
 32 41  1  0  0  0  0
 33 34  2  0  0  0  0
 33 40  1  0  0  0  0
 34 35  1  0  0  0  0
 34 39  1  0  0  0  0
 35 36  2  0  0  0  0
 35 38  1  0  0  0  0
 36 37  1  0  0  0  0
 47 48  1  0  0  0  0
 47 53  2  0  0  0  0
 48 49  2  0  0  0  0
 48 58  1  0  0  0  0
 49 50  1  0  0  0  0
 49 51  1  0  0  0  0
 51 52  2  0  0  0  0
 51 57  1  0  0  0  0
 52 53  1  0  0  0  0
 52 56  1  0  0  0  0
 53 54  1  0  0  0  0
 54 55  2  0  0  0  0
M  END
$$$$
mol46_score_22.4240
  PyMOL2.5          3D                             0

 50 54  0  0  1  0  0  0  0  0999 V2000
  -10.4330   -1.1590  -23.2590 C   0  0  0  0  0  0  0  0  0  0  0  0
   -8.9810   -1.4920  -22.9290 C   0  0  1  0  0  0  0  0  0  0  0  0
   -8.3570   -0.5320  -21.9080 C   0  0  0  0  0  0  0  0  0  0  0  0
   -7.3580   -1.3410  -21.2340 N   0  0  0  0  0  0  0  0  0  0  0  0
   -6.5630   -0.8460  -20.1830 C   0  0  0  0  0  0  0  0  0  0  0  0
   -6.8840   -1.0950  -18.8740 C   0  0  0  0  0  0  0  0  0  0  0  0
   -6.2090   -0.5690  -17.8230 N   0  0  0  0  0  0  0  0  0  0  0  0
   -5.1850    0.2030  -18.0860 C   0  0  0  0  0  0  0  0  0  0  0  0
   -4.7330    0.5080  -19.4030 C   0  0  0  0  0  0  0  0  0  0  0  0
   -3.6100    1.3350  -19.6430 C   0  0  0  0  0  0  0  0  0  0  0  0
   -3.2190    1.6180  -20.9210 C   0  0  0  0  0  0  0  0  0  0  0  0
   -3.9290    1.0890  -22.0220 C   0  0  0  0  0  0  0  0  0  0  0  0
   -5.0140    0.2730  -21.8190 C   0  0  0  0  0  0  0  0  0  0  0  0
   -5.4440   -0.0250  -20.4980 C   0  0  0  0  0  0  0  0  0  0  0  0
   -5.5490   -0.1510  -22.6650 H   0  0  0  0  0  0  0  0  0  0  0  0
   -3.6180    1.3390  -23.0320 H   0  0  0  0  0  0  0  0  0  0  0  0
   -2.3670    2.2640  -21.0970 H   0  0  0  0  0  0  0  0  0  0  0  0
   -3.0940    1.7530  -18.7830 H   0  0  0  0  0  0  0  0  0  0  0  0
   -4.6470    0.6360  -17.2390 H   0  0  0  0  0  0  0  0  0  0  0  0
   -7.7240   -1.7380  -18.6230 H   0  0  0  0  0  0  0  0  0  0  0  0
   -7.5500   -2.6920  -21.3800 C   0  0  0  0  0  0  0  0  0  0  0  0
   -6.8610   -3.5480  -20.8540 O   0  0  0  0  0  0  0  0  0  0  0  0
   -8.7580   -2.9060  -22.2900 C   0  0  1  0  0  0  0  0  0  0  0  0
   -9.9500   -3.2980  -21.3990 C   0  0  0  0  0  0  0  0  0  0  0  0
  -11.0860   -3.7330  -22.1840 N   0  0  0  0  0  0  0  0  0  0  0  0
  -12.4540   -3.5550  -21.7420 C   0  0  0  0  0  0  0  0  0  0  0  0
  -13.3390   -2.7620  -22.6290 C   0  0  0  0  0  0  0  0  0  0  0  0
  -14.1330   -2.2020  -23.2550 N   0  0  0  0  0  0  0  0  0  0  0  0
  -12.4880   -3.1000  -20.7500 H   0  0  0  0  0  0  0  0  0  0  0  0
  -12.9130   -4.5420  -21.7150 H   0  0  0  0  0  0  0  0  0  0  0  0
  -10.9080   -4.6590  -23.1740 C   0  0  0  0  0  0  0  0  0  0  0  0
  -11.8560   -5.2830  -23.6110 O   0  0  0  0  0  0  0  0  0  0  0  0
   -9.5350   -4.8300  -23.7230 C   0  0  0  0  0  0  0  0  0  0  0  0
   -9.3210   -5.7850  -24.7150 C   0  0  0  0  0  0  0  0  0  0  0  0
   -8.0850   -5.9090  -25.3110 C   0  0  0  0  0  0  0  0  0  0  0  0
   -7.0750   -5.0570  -24.8880 C   0  0  0  0  0  0  0  0  0  0  0  0
   -5.8820   -5.1460  -25.4870 F   0  0  0  0  0  0  0  0  0  0  0  0
   -7.2520   -4.1140  -23.9010 C   0  0  0  0  0  0  0  0  0  0  0  0
   -8.5050   -3.9900  -23.3040 C   0  0  0  0  0  0  0  0  0  0  0  0
   -6.4270   -3.4830  -23.5950 H   0  0  0  0  0  0  0  0  0  0  0  0
   -7.8830   -6.6320  -26.0910 H   0  0  0  0  0  0  0  0  0  0  0  0
  -10.1520   -6.4160  -25.0030 H   0  0  0  0  0  0  0  0  0  0  0  0
   -9.6280   -4.0820  -20.7170 H   0  0  0  0  0  0  0  0  0  0  0  0
  -10.2310   -2.4260  -20.8040 H   0  0  0  0  0  0  0  0  0  0  0  0
   -9.1140   -0.1800  -21.1930 H   0  0  0  0  0  0  0  0  0  0  0  0
   -7.9030    0.3440  -22.3770 H   0  0  0  0  0  0  0  0  0  0  0  0
   -8.3850   -1.4690  -23.8520 H   0  0  0  0  0  0  0  0  0  0  0  0
  -10.5220   -0.1820  -23.7350 H   0  0  0  0  0  0  0  0  0  0  0  0
  -11.0310   -1.1460  -22.3440 H   0  0  0  0  0  0  0  0  0  0  0  0
  -10.8640   -1.9210  -23.9140 H   0  0  0  0  0  0  0  0  0  0  0  0
  1  2  1  0  0  0  0
  1 48  1  0  0  0  0
  1 49  1  0  0  0  0
  1 50  1  0  0  0  0
  2  3  1  0  0  0  0
  2 23  1  0  0  0  0
  2 47  1  0  0  0  0
  3  4  1  0  0  0  0
  3 45  1  0  0  0  0
  3 46  1  0  0  0  0
  4  5  1  0  0  0  0
  4 21  1  0  0  0  0
  5  6  2  0  0  0  0
  5 14  1  0  0  0  0
  6  7  1  0  0  0  0
  6 20  1  0  0  0  0
  7  8  2  0  0  0  0
  8  9  1  0  0  0  0
  8 19  1  0  0  0  0
  9 10  1  0  0  0  0
  9 14  2  0  0  0  0
 10 11  2  0  0  0  0
 10 18  1  0  0  0  0
 11 12  1  0  0  0  0
 11 17  1  0  0  0  0
 12 13  2  0  0  0  0
 12 16  1  0  0  0  0
 13 14  1  0  0  0  0
 13 15  1  0  0  0  0
 21 22  2  0  0  0  0
 21 23  1  0  0  0  0
 23 24  1  0  0  0  0
 23 39  1  0  0  0  0
 24 25  1  0  0  0  0
 24 43  1  0  0  0  0
 24 44  1  0  0  0  0
 25 26  1  0  0  0  0
 25 31  1  0  0  0  0
 26 27  1  0  0  0  0
 26 29  1  0  0  0  0
 26 30  1  0  0  0  0
 27 28  3  0  0  0  0
 31 32  2  0  0  0  0
 31 33  1  0  0  0  0
 33 34  2  0  0  0  0
 33 39  1  0  0  0  0
 34 35  1  0  0  0  0
 34 42  1  0  0  0  0
 35 36  2  0  0  0  0
 35 41  1  0  0  0  0
 36 37  1  0  0  0  0
 36 38  1  0  0  0  0
 38 39  2  0  0  0  0
 38 40  1  0  0  0  0
M  END
$$$$
mol48_score_19.1675
  PyMOL2.5          3D                             0

 46 48  0  0  0  0  0  0  0  0999 V2000
  -13.1350   -3.5920  -22.1130 C   0  0  0  0  0  0  0  0  0  0  0  0
  -13.1570   -2.9110  -23.4840 C   0  0  0  0  0  0  0  0  0  0  0  0
  -14.5140   -2.2400  -23.7620 C   0  0  0  0  0  0  0  0  0  0  0  0
  -15.3150   -2.9730  -23.9110 H   0  0  0  0  0  0  0  0  0  0  0  0
  -14.4610   -1.6040  -24.6570 H   0  0  0  0  0  0  0  0  0  0  0  0
  -14.8070   -1.5930  -22.9270 H   0  0  0  0  0  0  0  0  0  0  0  0
  -12.0250   -1.8870  -23.7670 C   0  0  0  0  0  0  0  0  0  0  0  0
  -11.9300   -0.7450  -22.7440 C   0  0  0  0  0  0  0  0  0  0  0  0
  -10.6160    0.0250  -22.8880 C   0  0  0  0  0  0  0  0  0  0  0  0
   -9.5240   -0.8680  -22.4930 N   0  0  0  0  0  0  0  0  0  0  0  0
   -8.5510   -0.4170  -21.6540 C   0  0  0  0  0  0  0  0  0  0  0  0
   -8.5330    0.7320  -21.2290 O   0  0  0  0  0  0  0  0  0  0  0  0
   -7.4570   -1.4260  -21.2630 C   0  0  0  0  0  0  0  0  0  0  0  0
   -6.5800   -0.8430  -20.2050 C   0  0  0  0  0  0  0  0  0  0  0  0
   -6.9420   -0.9900  -18.8920 C   0  0  0  0  0  0  0  0  0  0  0  0
   -6.2920   -0.4370  -17.8400 N   0  0  0  0  0  0  0  0  0  0  0  0
   -5.2340    0.2850  -18.1130 C   0  0  0  0  0  0  0  0  0  0  0  0
   -4.7550    0.5400  -19.4270 C   0  0  0  0  0  0  0  0  0  0  0  0
   -3.6180    1.3460  -19.6740 C   0  0  0  0  0  0  0  0  0  0  0  0
   -3.2260    1.6240  -20.9570 C   0  0  0  0  0  0  0  0  0  0  0  0
   -3.9640    1.1140  -22.0480 C   0  0  0  0  0  0  0  0  0  0  0  0
   -5.0630    0.3240  -21.8360 C   0  0  0  0  0  0  0  0  0  0  0  0
   -5.4730   -0.0040  -20.5150 C   0  0  0  0  0  0  0  0  0  0  0  0
   -5.6390   -0.0410  -22.6820 H   0  0  0  0  0  0  0  0  0  0  0  0
   -3.6570    1.3630  -23.0600 H   0  0  0  0  0  0  0  0  0  0  0  0
   -2.3580    2.2470  -21.1390 H   0  0  0  0  0  0  0  0  0  0  0  0
   -3.0810    1.7520  -18.8240 H   0  0  0  0  0  0  0  0  0  0  0  0
   -4.7100    0.7270  -17.2660 H   0  0  0  0  0  0  0  0  0  0  0  0
   -7.8270   -1.5760  -18.6410 H   0  0  0  0  0  0  0  0  0  0  0  0
   -6.8920   -1.7290  -22.1560 H   0  0  0  0  0  0  0  0  0  0  0  0
   -7.9350   -2.3350  -20.8690 H   0  0  0  0  0  0  0  0  0  0  0  0
   -9.7330   -2.2930  -22.7190 C   0  0  0  0  0  0  0  0  0  0  0  0
  -10.6110   -2.4690  -23.9490 C   0  0  0  0  0  0  0  0  0  0  0  0
  -10.6340   -3.5140  -24.2640 H   0  0  0  0  0  0  0  0  0  0  0  0
  -10.1270   -1.9240  -24.7650 H   0  0  0  0  0  0  0  0  0  0  0  0
   -8.7670   -2.7800  -22.8760 H   0  0  0  0  0  0  0  0  0  0  0  0
  -10.2090   -2.7700  -21.8460 H   0  0  0  0  0  0  0  0  0  0  0  0
  -10.4710    0.3600  -23.9260 H   0  0  0  0  0  0  0  0  0  0  0  0
  -10.5510    0.9130  -22.2530 H   0  0  0  0  0  0  0  0  0  0  0  0
  -12.8100   -0.1070  -22.8180 H   0  0  0  0  0  0  0  0  0  0  0  0
  -11.9200   -1.1550  -21.7340 H   0  0  0  0  0  0  0  0  0  0  0  0
  -12.2970   -1.4360  -24.7360 H   0  0  0  0  0  0  0  0  0  0  0  0
  -13.0090   -3.7200  -24.2140 H   0  0  0  0  0  0  0  0  0  0  0  0
  -13.9240   -4.3540  -22.0540 H   0  0  0  0  0  0  0  0  0  0  0  0
  -13.3210   -2.8830  -21.3010 H   0  0  0  0  0  0  0  0  0  0  0  0
  -12.1800   -4.0920  -21.9100 H   0  0  0  0  0  0  0  0  0  0  0  0
  1  2  1  0  0  0  0
  1 44  1  0  0  0  0
  1 45  1  0  0  0  0
  1 46  1  0  0  0  0
  2  3  1  0  0  0  0
  2  7  1  0  0  0  0
  2 43  1  0  0  0  0
  3  4  1  0  0  0  0
  3  5  1  0  0  0  0
  3  6  1  0  0  0  0
  7  8  1  0  0  0  0
  7 33  1  0  0  0  0
  7 42  1  0  0  0  0
  8  9  1  0  0  0  0
  8 40  1  0  0  0  0
  8 41  1  0  0  0  0
  9 10  1  0  0  0  0
  9 38  1  0  0  0  0
  9 39  1  0  0  0  0
 10 11  1  0  0  0  0
 10 32  1  0  0  0  0
 11 12  2  0  0  0  0
 11 13  1  0  0  0  0
 13 14  1  0  0  0  0
 13 30  1  0  0  0  0
 13 31  1  0  0  0  0
 14 15  2  0  0  0  0
 14 23  1  0  0  0  0
 15 16  1  0  0  0  0
 15 29  1  0  0  0  0
 16 17  2  0  0  0  0
 17 18  1  0  0  0  0
 17 28  1  0  0  0  0
 18 19  1  0  0  0  0
 18 23  2  0  0  0  0
 19 20  2  0  0  0  0
 19 27  1  0  0  0  0
 20 21  1  0  0  0  0
 20 26  1  0  0  0  0
 21 22  2  0  0  0  0
 21 25  1  0  0  0  0
 22 23  1  0  0  0  0
 22 24  1  0  0  0  0
 32 33  1  0  0  0  0
 32 36  1  0  0  0  0
 32 37  1  0  0  0  0
 33 34  1  0  0  0  0
 33 35  1  0  0  0  0
M  END
$$$$
mol49_score_25.5049
  PyMOL2.5          3D                             0

 67 72  0  0  1  0  0  0  0  0999 V2000
   -7.7330    3.2290  -22.4340 C   0  0  0  0  0  0  0  0  0  0  0  0
   -8.5280    2.7050  -23.5220 N   0  0  0  0  0  0  0  0  0  0  0  0
   -7.9200    2.0380  -24.5340 C   0  0  0  0  0  0  0  0  0  0  0  0
   -6.7120    2.0120  -24.6850 O   0  0  0  0  0  0  0  0  0  0  0  0
   -8.8880    1.2700  -25.4470 C   0  0  0  0  0  0  0  0  0  0  0  0
   -9.5470    0.2020  -24.7010 N   0  0  0  0  0  0  0  0  0  0  0  0
   -8.7110   -0.9190  -24.3070 C   0  0  0  0  0  0  0  0  0  0  0  0
   -9.1210   -1.5870  -22.9570 C   0  0  2  0  0  0  0  0  0  0  0  0
   -8.5780   -0.7260  -21.7820 C   0  0  0  0  0  0  0  0  0  0  0  0
   -9.0570    0.3120  -21.3730 O   0  0  0  0  0  0  0  0  0  0  0  0
   -7.4420   -1.3270  -21.2820 N   0  0  0  0  0  0  0  0  0  0  0  0
   -6.6620   -0.7510  -20.2380 C   0  0  0  0  0  0  0  0  0  0  0  0
   -6.9640   -1.0040  -18.9240 C   0  0  0  0  0  0  0  0  0  0  0  0
   -6.2450   -0.5510  -17.8660 N   0  0  0  0  0  0  0  0  0  0  0  0
   -5.1840    0.1740  -18.1080 C   0  0  0  0  0  0  0  0  0  0  0  0
   -4.7460    0.5170  -19.4190 C   0  0  0  0  0  0  0  0  0  0  0  0
   -3.5900    1.3120  -19.6460 C   0  0  0  0  0  0  0  0  0  0  0  0
   -3.2130    1.6360  -20.9200 C   0  0  0  0  0  0  0  0  0  0  0  0
   -3.9750    1.1940  -22.0230 C   0  0  0  0  0  0  0  0  0  0  0  0
   -5.1060    0.4360  -21.8270 C   0  0  0  0  0  0  0  0  0  0  0  0
   -5.5110    0.0570  -20.5200 C   0  0  0  0  0  0  0  0  0  0  0  0
   -5.7180    0.1520  -22.6780 H   0  0  0  0  0  0  0  0  0  0  0  0
   -3.6750    1.4630  -23.0310 H   0  0  0  0  0  0  0  0  0  0  0  0
   -2.3350    2.2510  -21.0950 H   0  0  0  0  0  0  0  0  0  0  0  0
   -3.0210    1.6640  -18.7890 H   0  0  0  0  0  0  0  0  0  0  0  0
   -4.6160    0.5360  -17.2480 H   0  0  0  0  0  0  0  0  0  0  0  0
   -7.8310   -1.6120  -18.6780 H   0  0  0  0  0  0  0  0  0  0  0  0
   -7.0590   -2.5360  -21.9830 C   0  0  0  0  0  0  0  0  0  0  0  0
   -8.3450   -2.9150  -22.7380 C   0  0  2  0  0  0  0  0  0  0  0  0
   -8.0780   -3.7630  -23.9900 C   0  0  0  0  0  0  0  0  0  0  0  0
   -7.6150   -5.0900  -23.6640 N   0  0  0  0  0  0  0  0  0  0  0  0
   -6.2830   -5.3920  -23.5860 C   0  0  0  0  0  0  0  0  0  0  0  0
   -5.2180   -4.6590  -24.0170 C   0  0  0  0  0  0  0  0  0  0  0  0
   -3.9780   -5.2210  -23.8450 N   0  0  0  0  0  0  0  0  0  0  0  0
   -4.0620   -6.3860  -23.2880 C   0  0  0  0  0  0  0  0  0  0  0  0
   -2.8860   -7.2630  -22.9970 C   0  0  0  0  0  0  0  0  0  0  0  0
   -3.0570   -7.8680  -22.1050 H   0  0  0  0  0  0  0  0  0  0  0  0
   -2.7090   -7.9540  -23.8300 H   0  0  0  0  0  0  0  0  0  0  0  0
   -1.9940   -6.6440  -22.8650 H   0  0  0  0  0  0  0  0  0  0  0  0
   -5.6960   -6.8930  -22.9120 S   0  0  0  0  0  0  0  0  0  0  0  0
   -5.2930   -3.6840  -24.4820 H   0  0  0  0  0  0  0  0  0  0  0  0
   -8.2860   -5.8310  -23.5520 H   0  0  0  0  0  0  0  0  0  0  0  0
   -8.9930   -3.8370  -24.5890 H   0  0  0  0  0  0  0  0  0  0  0  0
   -7.3130   -3.2780  -24.6090 H   0  0  0  0  0  0  0  0  0  0  0  0
   -8.9440   -3.5210  -22.0540 H   0  0  0  0  0  0  0  0  0  0  0  0
   -6.1990   -2.3740  -22.6560 H   0  0  0  0  0  0  0  0  0  0  0  0
   -6.7500   -3.3150  -21.2810 H   0  0  0  0  0  0  0  0  0  0  0  0
  -10.6360   -1.6850  -22.8650 C   0  0  0  0  0  0  0  0  0  0  0  0
  -11.2700   -2.5860  -21.9970 C   0  0  0  0  0  0  0  0  0  0  0  0
  -12.6490   -2.6040  -21.8820 C   0  0  0  0  0  0  0  0  0  0  0  0
  -13.4080   -3.7510  -20.8200 Cl  0  0  0  0  0  0  0  0  0  0  0  0
  -13.4590   -1.7120  -22.5790 C   0  0  0  0  0  0  0  0  0  0  0  0
  -12.8400   -0.7800  -23.3830 C   0  0  0  0  0  0  0  0  0  0  0  0
  -11.4520   -0.7580  -23.5260 C   0  0  0  0  0  0  0  0  0  0  0  0
  -10.8560    0.3480  -24.3470 C   0  0  0  0  0  0  0  0  0  0  0  0
  -11.5080    1.3360  -24.6620 O   0  0  0  0  0  0  0  0  0  0  0  0
  -13.4230   -0.0320  -23.9050 H   0  0  0  0  0  0  0  0  0  0  0  0
  -14.5390   -1.7460  -22.4660 H   0  0  0  0  0  0  0  0  0  0  0  0
  -10.7100   -3.2730  -21.3730 H   0  0  0  0  0  0  0  0  0  0  0  0
   -7.6950   -0.5290  -24.2090 H   0  0  0  0  0  0  0  0  0  0  0  0
   -8.6810   -1.6480  -25.1260 H   0  0  0  0  0  0  0  0  0  0  0  0
   -9.6790    1.9150  -25.8420 H   0  0  0  0  0  0  0  0  0  0  0  0
   -8.3090    0.8670  -26.2860 H   0  0  0  0  0  0  0  0  0  0  0  0
   -9.4860    2.4640  -23.3210 H   0  0  0  0  0  0  0  0  0  0  0  0
   -7.3730    2.4170  -21.7830 H   0  0  0  0  0  0  0  0  0  0  0  0
   -6.8550    3.7270  -22.8560 H   0  0  0  0  0  0  0  0  0  0  0  0
   -8.3320    3.9420  -21.8600 H   0  0  0  0  0  0  0  0  0  0  0  0
  1  2  1  0  0  0  0
  1 65  1  0  0  0  0
  1 66  1  0  0  0  0
  1 67  1  0  0  0  0
  2  3  1  0  0  0  0
  2 64  1  0  0  0  0
  3  4  2  0  0  0  0
  3  5  1  0  0  0  0
  5  6  1  0  0  0  0
  5 62  1  0  0  0  0
  5 63  1  0  0  0  0
  6  7  1  0  0  0  0
  6 55  1  0  0  0  0
  7  8  1  0  0  0  0
  7 60  1  0  0  0  0
  7 61  1  0  0  0  0
  8  9  1  0  0  0  0
  8 29  1  0  0  0  0
  8 48  1  0  0  0  0
  9 10  2  0  0  0  0
  9 11  1  0  0  0  0
 11 12  1  0  0  0  0
 11 28  1  0  0  0  0
 12 13  2  0  0  0  0
 12 21  1  0  0  0  0
 13 14  1  0  0  0  0
 13 27  1  0  0  0  0
 14 15  2  0  0  0  0
 15 16  1  0  0  0  0
 15 26  1  0  0  0  0
 16 17  1  0  0  0  0
 16 21  2  0  0  0  0
 17 18  2  0  0  0  0
 17 25  1  0  0  0  0
 18 19  1  0  0  0  0
 18 24  1  0  0  0  0
 19 20  2  0  0  0  0
 19 23  1  0  0  0  0
 20 21  1  0  0  0  0
 20 22  1  0  0  0  0
 28 29  1  0  0  0  0
 28 46  1  0  0  0  0
 28 47  1  0  0  0  0
 29 30  1  0  0  0  0
 29 45  1  0  0  0  0
 30 31  1  0  0  0  0
 30 43  1  0  0  0  0
 30 44  1  0  0  0  0
 31 32  1  0  0  0  0
 31 42  1  0  0  0  0
 32 33  2  0  0  0  0
 32 40  1  0  0  0  0
 33 34  1  0  0  0  0
 33 41  1  0  0  0  0
 34 35  2  0  0  0  0
 35 36  1  0  0  0  0
 35 40  1  0  0  0  0
 36 37  1  0  0  0  0
 36 38  1  0  0  0  0
 36 39  1  0  0  0  0
 48 49  1  0  0  0  0
 48 54  2  0  0  0  0
 49 50  2  0  0  0  0
 49 59  1  0  0  0  0
 50 51  1  0  0  0  0
 50 52  1  0  0  0  0
 52 53  2  0  0  0  0
 52 58  1  0  0  0  0
 53 54  1  0  0  0  0
 53 57  1  0  0  0  0
 54 55  1  0  0  0  0
 55 56  2  0  0  0  0
M  END
$$$$
mol50_score_24.4949
  PyMOL2.5          3D                             0

 66 70  0  0  1  0  0  0  0  0999 V2000
   -7.4520    3.3580  -21.8250 C   0  0  0  0  0  0  0  0  0  0  0  0
   -8.3570    2.8820  -22.8520 N   0  0  0  0  0  0  0  0  0  0  0  0
   -7.8390    2.1570  -23.8700 C   0  0  0  0  0  0  0  0  0  0  0  0
   -6.6300    2.0120  -24.0200 O   0  0  0  0  0  0  0  0  0  0  0  0
   -8.8440    1.5410  -24.8500 C   0  0  0  0  0  0  0  0  0  0  0  0
   -9.5400    0.3830  -24.3190 N   0  0  0  0  0  0  0  0  0  0  0  0
   -8.8050   -0.8620  -24.1800 C   0  0  0  0  0  0  0  0  0  0  0  0
   -9.1220   -1.5670  -22.8380 C   0  0  2  0  0  0  0  0  0  0  0  0
   -8.5390   -0.7490  -21.6530 C   0  0  0  0  0  0  0  0  0  0  0  0
   -8.9780    0.2790  -21.1820 O   0  0  0  0  0  0  0  0  0  0  0  0
   -7.4030   -1.3850  -21.2000 N   0  0  0  0  0  0  0  0  0  0  0  0
   -6.6060   -0.8090  -20.1730 C   0  0  0  0  0  0  0  0  0  0  0  0
   -6.9110   -1.0380  -18.8560 C   0  0  0  0  0  0  0  0  0  0  0  0
   -6.2080   -0.5430  -17.8060 N   0  0  0  0  0  0  0  0  0  0  0  0
   -5.1680    0.2100  -18.0770 C   0  0  0  0  0  0  0  0  0  0  0  0
   -4.7290    0.5270  -19.3930 C   0  0  0  0  0  0  0  0  0  0  0  0
   -3.6010    1.3580  -19.6410 C   0  0  0  0  0  0  0  0  0  0  0  0
   -3.2140    1.6470  -20.9210 C   0  0  0  0  0  0  0  0  0  0  0  0
   -3.9380    1.1190  -22.0150 C   0  0  0  0  0  0  0  0  0  0  0  0
   -5.0330    0.3140  -21.8000 C   0  0  0  0  0  0  0  0  0  0  0  0
   -5.4640    0.0000  -20.4840 C   0  0  0  0  0  0  0  0  0  0  0  0
   -5.5950   -0.0690  -22.6470 H   0  0  0  0  0  0  0  0  0  0  0  0
   -3.6440    1.3630  -23.0290 H   0  0  0  0  0  0  0  0  0  0  0  0
   -2.3610    2.2950  -21.1020 H   0  0  0  0  0  0  0  0  0  0  0  0
   -3.0720    1.7720  -18.7860 H   0  0  0  0  0  0  0  0  0  0  0  0
   -4.6180    0.6140  -17.2260 H   0  0  0  0  0  0  0  0  0  0  0  0
   -7.7600   -1.6660  -18.5970 H   0  0  0  0  0  0  0  0  0  0  0  0
   -7.0770   -2.6090  -21.9090 C   0  0  0  0  0  0  0  0  0  0  0  0
   -8.3660   -2.9280  -22.6980 C   0  0  2  0  0  0  0  0  0  0  0  0
   -8.0850   -3.6760  -24.0010 C   0  0  0  0  0  0  0  0  0  0  0  0
   -7.4670   -4.9170  -23.7080 O   0  0  0  0  0  0  0  0  0  0  0  0
   -7.3030   -5.7630  -24.8500 C   0  0  0  0  0  0  0  0  0  0  0  0
   -8.4380   -6.7860  -24.9200 C   0  0  0  0  0  0  0  0  0  0  0  0
   -8.4370   -7.4070  -24.0180 H   0  0  0  0  0  0  0  0  0  0  0  0
   -8.3140   -7.4380  -25.7940 H   0  0  0  0  0  0  0  0  0  0  0  0
   -9.4140   -6.2930  -25.0010 H   0  0  0  0  0  0  0  0  0  0  0  0
   -5.9400   -6.4430  -24.7580 C   0  0  0  0  0  0  0  0  0  0  0  0
   -5.8880   -7.0660  -23.8590 H   0  0  0  0  0  0  0  0  0  0  0  0
   -5.7720   -7.0810  -25.6340 H   0  0  0  0  0  0  0  0  0  0  0  0
   -5.1410   -5.6970  -24.7130 H   0  0  0  0  0  0  0  0  0  0  0  0
   -7.3280   -5.1360  -25.7590 H   0  0  0  0  0  0  0  0  0  0  0  0
   -9.0200   -3.8350  -24.5630 H   0  0  0  0  0  0  0  0  0  0  0  0
   -7.4130   -3.0830  -24.6450 H   0  0  0  0  0  0  0  0  0  0  0  0
   -8.9760   -3.5940  -22.0860 H   0  0  0  0  0  0  0  0  0  0  0  0
   -6.8060   -3.4020  -21.2020 H   0  0  0  0  0  0  0  0  0  0  0  0
   -6.2170   -2.4630  -22.5810 H   0  0  0  0  0  0  0  0  0  0  0  0
  -10.6320   -1.6250  -22.7110 C   0  0  0  0  0  0  0  0  0  0  0  0
  -11.2100   -2.5160  -21.8100 C   0  0  0  0  0  0  0  0  0  0  0  0
  -12.5730   -2.5290  -21.6270 C   0  0  0  0  0  0  0  0  0  0  0  0
  -13.0560   -3.3620  -20.6910 F   0  0  0  0  0  0  0  0  0  0  0  0
  -13.4290   -1.6910  -22.3360 C   0  0  0  0  0  0  0  0  0  0  0  0
  -12.8600   -0.7690  -23.1940 C   0  0  0  0  0  0  0  0  0  0  0  0
  -11.4740   -0.7050  -23.3570 C   0  0  0  0  0  0  0  0  0  0  0  0
  -10.9030    0.4210  -24.1640 C   0  0  0  0  0  0  0  0  0  0  0  0
  -11.5990    1.3180  -24.6170 O   0  0  0  0  0  0  0  0  0  0  0  0
  -13.4610   -0.0490  -23.7390 H   0  0  0  0  0  0  0  0  0  0  0  0
  -14.5020   -1.7440  -22.1910 H   0  0  0  0  0  0  0  0  0  0  0  0
  -10.6220   -3.1940  -21.2060 H   0  0  0  0  0  0  0  0  0  0  0  0
   -9.0510   -1.5470  -25.0080 H   0  0  0  0  0  0  0  0  0  0  0  0
   -7.7410   -0.6130  -24.2220 H   0  0  0  0  0  0  0  0  0  0  0  0
   -8.2550    1.2720  -25.7350 H   0  0  0  0  0  0  0  0  0  0  0  0
   -9.6280    2.2470  -25.1400 H   0  0  0  0  0  0  0  0  0  0  0  0
   -9.3520    2.8440  -22.6690 H   0  0  0  0  0  0  0  0  0  0  0  0
   -8.0420    3.8630  -21.0610 H   0  0  0  0  0  0  0  0  0  0  0  0
   -6.8770    2.5140  -21.4040 H   0  0  0  0  0  0  0  0  0  0  0  0
   -6.7390    4.0830  -22.2350 H   0  0  0  0  0  0  0  0  0  0  0  0
  1  2  1  0  0  0  0
  1 64  1  0  0  0  0
  1 65  1  0  0  0  0
  1 66  1  0  0  0  0
  2  3  1  0  0  0  0
  2 63  1  0  0  0  0
  3  4  2  0  0  0  0
  3  5  1  0  0  0  0
  5  6  1  0  0  0  0
  5 61  1  0  0  0  0
  5 62  1  0  0  0  0
  6  7  1  0  0  0  0
  6 54  1  0  0  0  0
  7  8  1  0  0  0  0
  7 59  1  0  0  0  0
  7 60  1  0  0  0  0
  8  9  1  0  0  0  0
  8 29  1  0  0  0  0
  8 47  1  0  0  0  0
  9 10  2  0  0  0  0
  9 11  1  0  0  0  0
 11 12  1  0  0  0  0
 11 28  1  0  0  0  0
 12 13  2  0  0  0  0
 12 21  1  0  0  0  0
 13 14  1  0  0  0  0
 13 27  1  0  0  0  0
 14 15  2  0  0  0  0
 15 16  1  0  0  0  0
 15 26  1  0  0  0  0
 16 17  1  0  0  0  0
 16 21  2  0  0  0  0
 17 18  2  0  0  0  0
 17 25  1  0  0  0  0
 18 19  1  0  0  0  0
 18 24  1  0  0  0  0
 19 20  2  0  0  0  0
 19 23  1  0  0  0  0
 20 21  1  0  0  0  0
 20 22  1  0  0  0  0
 28 29  1  0  0  0  0
 28 45  1  0  0  0  0
 28 46  1  0  0  0  0
 29 30  1  0  0  0  0
 29 44  1  0  0  0  0
 30 31  1  0  0  0  0
 30 42  1  0  0  0  0
 30 43  1  0  0  0  0
 31 32  1  0  0  0  0
 32 33  1  0  0  0  0
 32 37  1  0  0  0  0
 32 41  1  0  0  0  0
 33 34  1  0  0  0  0
 33 35  1  0  0  0  0
 33 36  1  0  0  0  0
 37 38  1  0  0  0  0
 37 39  1  0  0  0  0
 37 40  1  0  0  0  0
 47 48  1  0  0  0  0
 47 53  2  0  0  0  0
 48 49  2  0  0  0  0
 48 58  1  0  0  0  0
 49 50  1  0  0  0  0
 49 51  1  0  0  0  0
 51 52  2  0  0  0  0
 51 57  1  0  0  0  0
 52 53  1  0  0  0  0
 52 56  1  0  0  0  0
 53 54  1  0  0  0  0
 54 55  2  0  0  0  0
M  END
$$$$
mol51_score_22.1397
  PyMOL2.5          3D                             0

 50 52  0  0  0  0  0  0  0  0999 V2000
   -9.7510   -3.8840  -25.5830 C   0  0  0  0  0  0  0  0  0  0  0  0
   -8.7850   -3.5530  -24.7340 C   0  0  0  0  0  0  0  0  0  0  0  0
   -8.7060   -2.1550  -24.1720 C   0  0  0  0  0  0  0  0  0  0  0  0
   -9.4770   -1.9510  -22.9390 N   0  0  0  0  0  0  0  0  0  0  0  0
   -8.8980   -1.3060  -21.8450 C   0  0  0  0  0  0  0  0  0  0  0  0
   -9.4920   -0.5450  -21.1080 O   0  0  0  0  0  0  0  0  0  0  0  0
   -7.5680   -1.6310  -21.6530 N   0  0  0  0  0  0  0  0  0  0  0  0
   -6.9040   -1.0690  -20.5410 C   0  0  0  0  0  0  0  0  0  0  0  0
   -7.3490   -1.2800  -19.2650 C   0  0  0  0  0  0  0  0  0  0  0  0
   -6.7380   -0.8010  -18.1580 N   0  0  0  0  0  0  0  0  0  0  0  0
   -5.6720   -0.0560  -18.3220 C   0  0  0  0  0  0  0  0  0  0  0  0
   -5.1320    0.2830  -19.5910 C   0  0  0  0  0  0  0  0  0  0  0  0
   -4.0010    1.1300  -19.7360 C   0  0  0  0  0  0  0  0  0  0  0  0
   -3.5270    1.4370  -20.9820 C   0  0  0  0  0  0  0  0  0  0  0  0
   -4.1710    0.9410  -22.1390 C   0  0  0  0  0  0  0  0  0  0  0  0
   -5.2800    0.1390  -22.0200 C   0  0  0  0  0  0  0  0  0  0  0  0
   -5.7670   -0.2300  -20.7420 C   0  0  0  0  0  0  0  0  0  0  0  0
   -5.8110   -0.2120  -22.8980 H   0  0  0  0  0  0  0  0  0  0  0  0
   -3.7880    1.1970  -23.1250 H   0  0  0  0  0  0  0  0  0  0  0  0
   -2.6510    2.0700  -21.0980 H   0  0  0  0  0  0  0  0  0  0  0  0
   -3.5390    1.5390  -18.8410 H   0  0  0  0  0  0  0  0  0  0  0  0
   -5.1820    0.3140  -17.4220 H   0  0  0  0  0  0  0  0  0  0  0  0
   -8.2550   -1.8560  -19.0950 H   0  0  0  0  0  0  0  0  0  0  0  0
   -7.1970   -2.4900  -22.0680 H   0  0  0  0  0  0  0  0  0  0  0  0
  -10.8930   -2.1320  -22.8930 C   0  0  0  0  0  0  0  0  0  0  0  0
  -11.7800   -1.5610  -23.8070 C   0  0  0  0  0  0  0  0  0  0  0  0
  -13.1550   -1.7640  -23.6530 C   0  0  0  0  0  0  0  0  0  0  0  0
  -13.6610   -2.5310  -22.6090 C   0  0  0  0  0  0  0  0  0  0  0  0
  -12.7630   -3.0890  -21.7060 C   0  0  0  0  0  0  0  0  0  0  0  0
  -13.3940   -4.0090  -20.3720 Cl  0  0  0  0  0  0  0  0  0  0  0  0
  -11.3970   -2.8940  -21.8410 C   0  0  0  0  0  0  0  0  0  0  0  0
  -10.6820   -3.3530  -21.1660 H   0  0  0  0  0  0  0  0  0  0  0  0
  -14.7260   -2.7360  -22.5110 H   0  0  0  0  0  0  0  0  0  0  0  0
  -13.8450   -1.3170  -24.3620 H   0  0  0  0  0  0  0  0  0  0  0  0
  -11.4080   -0.9520  -24.6280 H   0  0  0  0  0  0  0  0  0  0  0  0
   -7.6670   -1.9210  -23.9470 H   0  0  0  0  0  0  0  0  0  0  0  0
   -9.0270   -1.4380  -24.9390 H   0  0  0  0  0  0  0  0  0  0  0  0
   -7.7230   -4.4880  -24.2260 C   0  0  0  0  0  0  0  0  0  0  0  0
   -7.0070   -4.1810  -23.2730 O   0  0  0  0  0  0  0  0  0  0  0  0
   -7.5660   -5.6620  -24.8900 N   0  0  0  0  0  0  0  0  0  0  0  0
   -6.8560   -6.7660  -24.2780 C   0  0  0  0  0  0  0  0  0  0  0  0
   -7.7700   -7.6070  -23.3930 C   0  0  0  0  0  0  0  0  0  0  0  0
   -8.1310   -7.0010  -22.5580 H   0  0  0  0  0  0  0  0  0  0  0  0
   -7.2470   -8.4760  -22.9860 H   0  0  0  0  0  0  0  0  0  0  0  0
   -8.6430   -7.9550  -23.9590 H   0  0  0  0  0  0  0  0  0  0  0  0
   -6.0470   -6.3300  -23.6940 H   0  0  0  0  0  0  0  0  0  0  0  0
   -6.4100   -7.3640  -25.0780 H   0  0  0  0  0  0  0  0  0  0  0  0
   -8.2240   -5.8790  -25.6180 H   0  0  0  0  0  0  0  0  0  0  0  0
   -9.9190   -4.8830  -25.9740 H   0  0  0  0  0  0  0  0  0  0  0  0
  -10.4750   -3.1380  -25.9090 H   0  0  0  0  0  0  0  0  0  0  0  0
  1  2  2  0  0  0  0
  1 49  1  0  0  0  0
  1 50  1  0  0  0  0
  2  3  1  0  0  0  0
  2 38  1  0  0  0  0
  3  4  1  0  0  0  0
  3 36  1  0  0  0  0
  3 37  1  0  0  0  0
  4  5  1  0  0  0  0
  4 25  1  0  0  0  0
  5  6  2  0  0  0  0
  5  7  1  0  0  0  0
  7  8  1  0  0  0  0
  7 24  1  0  0  0  0
  8  9  2  0  0  0  0
  8 17  1  0  0  0  0
  9 10  1  0  0  0  0
  9 23  1  0  0  0  0
 10 11  2  0  0  0  0
 11 12  1  0  0  0  0
 11 22  1  0  0  0  0
 12 13  1  0  0  0  0
 12 17  2  0  0  0  0
 13 14  2  0  0  0  0
 13 21  1  0  0  0  0
 14 15  1  0  0  0  0
 14 20  1  0  0  0  0
 15 16  2  0  0  0  0
 15 19  1  0  0  0  0
 16 17  1  0  0  0  0
 16 18  1  0  0  0  0
 25 26  2  0  0  0  0
 25 31  1  0  0  0  0
 26 27  1  0  0  0  0
 26 35  1  0  0  0  0
 27 28  2  0  0  0  0
 27 34  1  0  0  0  0
 28 29  1  0  0  0  0
 28 33  1  0  0  0  0
 29 30  1  0  0  0  0
 29 31  2  0  0  0  0
 31 32  1  0  0  0  0
 38 39  2  0  0  0  0
 38 40  1  0  0  0  0
 40 41  1  0  0  0  0
 40 48  1  0  0  0  0
 41 42  1  0  0  0  0
 41 46  1  0  0  0  0
 41 47  1  0  0  0  0
 42 43  1  0  0  0  0
 42 44  1  0  0  0  0
 42 45  1  0  0  0  0
M  END
$$$$
mol52_score_23.7065
  PyMOL2.5          3D                             0

 57 60  0  0  0  0  0  0  0  0999 V2000
  -15.1370    3.5650  -21.1240 C   0  0  0  0  0  0  0  0  0  0  0  0
  -15.1310    3.1410  -22.5900 C   0  0  0  0  0  0  0  0  0  0  0  0
  -13.7090    3.1610  -23.0790 C   0  0  0  0  0  0  0  0  0  0  0  0
  -13.1820    4.2110  -23.3980 O   0  0  0  0  0  0  0  0  0  0  0  0
  -13.0490    1.9570  -23.0660 N   0  0  0  0  0  0  0  0  0  0  0  0
  -11.7530    1.7620  -23.5880 C   0  0  0  0  0  0  0  0  0  0  0  0
  -11.2550    2.6320  -24.5560 C   0  0  0  0  0  0  0  0  0  0  0  0
   -9.9920    2.4260  -25.0800 C   0  0  0  0  0  0  0  0  0  0  0  0
   -9.2060    1.3750  -24.6400 C   0  0  0  0  0  0  0  0  0  0  0  0
   -9.6830    0.5480  -23.6300 C   0  0  0  0  0  0  0  0  0  0  0  0
   -8.8180   -0.4610  -23.1200 N   0  0  0  0  0  0  0  0  0  0  0  0
   -8.4220   -1.5500  -24.0030 C   0  0  0  0  0  0  0  0  0  0  0  0
   -9.0180   -2.8690  -23.5620 C   0  0  0  0  0  0  0  0  0  0  0  0
  -10.4070   -2.9430  -23.4320 C   0  0  0  0  0  0  0  0  0  0  0  0
  -11.0200   -4.1420  -23.0930 C   0  0  0  0  0  0  0  0  0  0  0  0
  -10.2450   -5.2730  -22.8540 C   0  0  0  0  0  0  0  0  0  0  0  0
   -8.8580   -5.1880  -22.9020 C   0  0  0  0  0  0  0  0  0  0  0  0
   -8.2460   -3.9910  -23.2680 C   0  0  0  0  0  0  0  0  0  0  0  0
   -7.1570   -3.9460  -23.3260 H   0  0  0  0  0  0  0  0  0  0  0  0
   -8.2500   -6.0520  -22.6460 H   0  0  0  0  0  0  0  0  0  0  0  0
  -10.7130   -6.2260  -22.6510 H   0  0  0  0  0  0  0  0  0  0  0  0
  -12.1040   -4.2000  -23.0270 H   0  0  0  0  0  0  0  0  0  0  0  0
  -11.0120   -2.0550  -23.6240 H   0  0  0  0  0  0  0  0  0  0  0  0
   -8.8190   -1.2950  -24.9890 H   0  0  0  0  0  0  0  0  0  0  0  0
   -7.3270   -1.5980  -24.0970 H   0  0  0  0  0  0  0  0  0  0  0  0
   -8.4610   -0.3530  -21.7940 C   0  0  0  0  0  0  0  0  0  0  0  0
   -8.9230    0.5100  -21.0680 O   0  0  0  0  0  0  0  0  0  0  0  0
   -7.4450   -1.3630  -21.2760 C   0  0  0  0  0  0  0  0  0  0  0  0
   -6.5980   -0.8020  -20.1870 C   0  0  0  0  0  0  0  0  0  0  0  0
   -6.9100   -1.0590  -18.8820 C   0  0  0  0  0  0  0  0  0  0  0  0
   -6.2360   -0.5810  -17.8080 N   0  0  0  0  0  0  0  0  0  0  0  0
   -5.2070    0.1930  -18.0570 C   0  0  0  0  0  0  0  0  0  0  0  0
   -4.7730    0.5550  -19.3620 C   0  0  0  0  0  0  0  0  0  0  0  0
   -3.6450    1.3880  -19.5760 C   0  0  0  0  0  0  0  0  0  0  0  0
   -3.2690    1.7370  -20.8420 C   0  0  0  0  0  0  0  0  0  0  0  0
   -4.0120    1.2790  -21.9530 C   0  0  0  0  0  0  0  0  0  0  0  0
   -5.0990    0.4590  -21.7750 C   0  0  0  0  0  0  0  0  0  0  0  0
   -5.5020    0.0630  -20.4700 C   0  0  0  0  0  0  0  0  0  0  0  0
   -5.6360    0.1000  -22.6480 H   0  0  0  0  0  0  0  0  0  0  0  0
   -3.7010    1.5580  -22.9580 H   0  0  0  0  0  0  0  0  0  0  0  0
   -2.4010    2.3710  -21.0070 H   0  0  0  0  0  0  0  0  0  0  0  0
   -3.0920    1.7450  -18.7100 H   0  0  0  0  0  0  0  0  0  0  0  0
   -4.6620    0.5790  -17.1960 H   0  0  0  0  0  0  0  0  0  0  0  0
   -7.7640   -1.6990  -18.6530 H   0  0  0  0  0  0  0  0  0  0  0  0
   -8.0300   -2.2100  -20.8990 H   0  0  0  0  0  0  0  0  0  0  0  0
   -6.8320   -1.7350  -22.0990 H   0  0  0  0  0  0  0  0  0  0  0  0
  -10.9700    0.7030  -23.1220 C   0  0  0  0  0  0  0  0  0  0  0  0
  -11.3200    0.0420  -22.3300 H   0  0  0  0  0  0  0  0  0  0  0  0
   -8.2090    1.2120  -25.0380 H   0  0  0  0  0  0  0  0  0  0  0  0
   -9.6330    3.0940  -25.8540 H   0  0  0  0  0  0  0  0  0  0  0  0
  -11.8380    3.4930  -24.8430 H   0  0  0  0  0  0  0  0  0  0  0  0
  -13.5230    1.1560  -22.6780 H   0  0  0  0  0  0  0  0  0  0  0  0
  -15.6750    3.8720  -23.1960 H   0  0  0  0  0  0  0  0  0  0  0  0
  -15.5810    2.1580  -22.7450 H   0  0  0  0  0  0  0  0  0  0  0  0
  -14.4600    2.9500  -20.5210 H   0  0  0  0  0  0  0  0  0  0  0  0
  -14.7960    4.6000  -21.0490 H   0  0  0  0  0  0  0  0  0  0  0  0
  -16.1420    3.4950  -20.7080 H   0  0  0  0  0  0  0  0  0  0  0  0
  1  2  1  0  0  0  0
  1 55  1  0  0  0  0
  1 56  1  0  0  0  0
  1 57  1  0  0  0  0
  2  3  1  0  0  0  0
  2 53  1  0  0  0  0
  2 54  1  0  0  0  0
  3  4  2  0  0  0  0
  3  5  1  0  0  0  0
  5  6  1  0  0  0  0
  5 52  1  0  0  0  0
  6  7  2  0  0  0  0
  6 47  1  0  0  0  0
  7  8  1  0  0  0  0
  7 51  1  0  0  0  0
  8  9  2  0  0  0  0
  8 50  1  0  0  0  0
  9 10  1  0  0  0  0
  9 49  1  0  0  0  0
 10 11  1  0  0  0  0
 10 47  2  0  0  0  0
 11 12  1  0  0  0  0
 11 26  1  0  0  0  0
 12 13  1  0  0  0  0
 12 24  1  0  0  0  0
 12 25  1  0  0  0  0
 13 14  2  0  0  0  0
 13 18  1  0  0  0  0
 14 15  1  0  0  0  0
 14 23  1  0  0  0  0
 15 16  2  0  0  0  0
 15 22  1  0  0  0  0
 16 17  1  0  0  0  0
 16 21  1  0  0  0  0
 17 18  2  0  0  0  0
 17 20  1  0  0  0  0
 18 19  1  0  0  0  0
 26 27  2  0  0  0  0
 26 28  1  0  0  0  0
 28 29  1  0  0  0  0
 28 45  1  0  0  0  0
 28 46  1  0  0  0  0
 29 30  2  0  0  0  0
 29 38  1  0  0  0  0
 30 31  1  0  0  0  0
 30 44  1  0  0  0  0
 31 32  2  0  0  0  0
 32 33  1  0  0  0  0
 32 43  1  0  0  0  0
 33 34  1  0  0  0  0
 33 38  2  0  0  0  0
 34 35  2  0  0  0  0
 34 42  1  0  0  0  0
 35 36  1  0  0  0  0
 35 41  1  0  0  0  0
 36 37  2  0  0  0  0
 36 40  1  0  0  0  0
 37 38  1  0  0  0  0
 37 39  1  0  0  0  0
 47 48  1  0  0  0  0
M  END
$$$$
mol53_score_23.5707
  PyMOL2.5          3D                             0

 59 63  0  0  1  0  0  0  0  0999 V2000
   -7.7150    4.3940  -22.3620 C   0  0  0  0  0  0  0  0  0  0  0  0
   -6.7950    3.4670  -23.1290 C   0  0  0  0  0  0  0  0  0  0  0  0
   -7.5710    2.7150  -24.0930 N   0  0  0  0  0  0  0  0  0  0  0  0
   -6.9920    1.7050  -24.7710 C   0  0  0  0  0  0  0  0  0  0  0  0
   -5.7950    1.4560  -24.6920 O   0  0  0  0  0  0  0  0  0  0  0  0
   -7.9480    0.8940  -25.6510 C   0  0  0  0  0  0  0  0  0  0  0  0
   -8.8980    0.1510  -24.8370 N   0  0  0  0  0  0  0  0  0  0  0  0
   -8.5340   -1.1770  -24.3610 C   0  0  0  0  0  0  0  0  0  0  0  0
   -9.0670   -1.4490  -22.9270 C   0  0  2  0  0  0  0  0  0  0  0  0
   -8.3280   -0.5230  -21.9290 C   0  0  0  0  0  0  0  0  0  0  0  0
   -8.4760    0.6750  -21.7750 O   0  0  0  0  0  0  0  0  0  0  0  0
   -7.4580   -1.2870  -21.1970 N   0  0  0  0  0  0  0  0  0  0  0  0
   -6.6440   -0.7480  -20.1790 C   0  0  0  0  0  0  0  0  0  0  0  0
   -6.9120   -1.0660  -18.8730 C   0  0  0  0  0  0  0  0  0  0  0  0
   -6.2160   -0.5980  -17.8130 N   0  0  0  0  0  0  0  0  0  0  0  0
   -5.2000    0.1920  -18.0680 C   0  0  0  0  0  0  0  0  0  0  0  0
   -4.7850    0.5610  -19.3780 C   0  0  0  0  0  0  0  0  0  0  0  0
   -3.6490    1.3860  -19.5940 C   0  0  0  0  0  0  0  0  0  0  0  0
   -3.2660    1.7240  -20.8620 C   0  0  0  0  0  0  0  0  0  0  0  0
   -4.0050    1.2590  -21.9720 C   0  0  0  0  0  0  0  0  0  0  0  0
   -5.0960    0.4430  -21.7920 C   0  0  0  0  0  0  0  0  0  0  0  0
   -5.5250    0.0840  -20.4830 C   0  0  0  0  0  0  0  0  0  0  0  0
   -5.6270    0.0830  -22.6680 H   0  0  0  0  0  0  0  0  0  0  0  0
   -3.7190    1.5410  -22.9820 H   0  0  0  0  0  0  0  0  0  0  0  0
   -2.3930    2.3490  -21.0250 H   0  0  0  0  0  0  0  0  0  0  0  0
   -3.1000    1.7390  -18.7260 H   0  0  0  0  0  0  0  0  0  0  0  0
   -4.6410    0.5740  -17.2150 H   0  0  0  0  0  0  0  0  0  0  0  0
   -7.7480   -1.7260  -18.6440 H   0  0  0  0  0  0  0  0  0  0  0  0
   -7.4200   -2.6790  -21.5640 C   0  0  0  0  0  0  0  0  0  0  0  0
   -8.6740   -2.8720  -22.4310 C   0  0  2  0  0  0  0  0  0  0  0  0
   -8.4610   -3.9410  -23.5010 C   0  0  0  0  0  0  0  0  0  0  0  0
   -8.2590   -4.9130  -23.0370 H   0  0  0  0  0  0  0  0  0  0  0  0
   -7.5970   -3.6950  -24.1310 H   0  0  0  0  0  0  0  0  0  0  0  0
   -9.3350   -4.0470  -24.1530 H   0  0  0  0  0  0  0  0  0  0  0  0
   -9.4640   -3.2260  -21.7670 H   0  0  0  0  0  0  0  0  0  0  0  0
   -6.5000   -2.9310  -22.1130 H   0  0  0  0  0  0  0  0  0  0  0  0
   -7.4320   -3.2990  -20.6680 H   0  0  0  0  0  0  0  0  0  0  0  0
  -10.5510   -1.1330  -22.9170 C   0  0  0  0  0  0  0  0  0  0  0  0
  -11.4610   -1.8050  -22.0980 C   0  0  0  0  0  0  0  0  0  0  0  0
  -12.8080   -1.5120  -22.1900 C   0  0  0  0  0  0  0  0  0  0  0  0
  -13.9210   -2.4120  -21.2030 Cl  0  0  0  0  0  0  0  0  0  0  0  0
  -13.2940   -0.5120  -23.0310 C   0  0  0  0  0  0  0  0  0  0  0  0
  -12.3880    0.2230  -23.7720 C   0  0  0  0  0  0  0  0  0  0  0  0
  -11.0250   -0.0680  -23.6950 C   0  0  0  0  0  0  0  0  0  0  0  0
  -10.0580    0.7640  -24.4720 C   0  0  0  0  0  0  0  0  0  0  0  0
  -10.3130    1.9350  -24.7670 O   0  0  0  0  0  0  0  0  0  0  0  0
  -12.7370    1.0050  -24.4380 H   0  0  0  0  0  0  0  0  0  0  0  0
  -14.3630   -0.3420  -23.0980 H   0  0  0  0  0  0  0  0  0  0  0  0
  -11.1390   -2.5530  -21.3820 H   0  0  0  0  0  0  0  0  0  0  0  0
   -7.4420   -1.2580  -24.3540 H   0  0  0  0  0  0  0  0  0  0  0  0
   -8.9380   -1.9260  -25.0540 H   0  0  0  0  0  0  0  0  0  0  0  0
   -7.3610    0.2220  -26.2810 H   0  0  0  0  0  0  0  0  0  0  0  0
   -8.5090    1.5600  -26.3140 H   0  0  0  0  0  0  0  0  0  0  0  0
   -8.5810    2.7810  -24.0710 H   0  0  0  0  0  0  0  0  0  0  0  0
   -6.2910    2.7640  -22.4520 H   0  0  0  0  0  0  0  0  0  0  0  0
   -6.0100    4.0090  -23.6650 H   0  0  0  0  0  0  0  0  0  0  0  0
   -8.4790    3.7890  -21.8690 H   0  0  0  0  0  0  0  0  0  0  0  0
   -8.2090    5.1070  -23.0330 H   0  0  0  0  0  0  0  0  0  0  0  0
   -7.1750    4.9570  -21.5960 H   0  0  0  0  0  0  0  0  0  0  0  0
  1  2  1  0  0  0  0
  1 57  1  0  0  0  0
  1 58  1  0  0  0  0
  1 59  1  0  0  0  0
  2  3  1  0  0  0  0
  2 55  1  0  0  0  0
  2 56  1  0  0  0  0
  3  4  1  0  0  0  0
  3 54  1  0  0  0  0
  4  5  2  0  0  0  0
  4  6  1  0  0  0  0
  6  7  1  0  0  0  0
  6 52  1  0  0  0  0
  6 53  1  0  0  0  0
  7  8  1  0  0  0  0
  7 45  1  0  0  0  0
  8  9  1  0  0  0  0
  8 50  1  0  0  0  0
  8 51  1  0  0  0  0
  9 10  1  0  0  0  0
  9 30  1  0  0  0  0
  9 38  1  0  0  0  0
 10 11  2  0  0  0  0
 10 12  1  0  0  0  0
 12 13  1  0  0  0  0
 12 29  1  0  0  0  0
 13 14  2  0  0  0  0
 13 22  1  0  0  0  0
 14 15  1  0  0  0  0
 14 28  1  0  0  0  0
 15 16  2  0  0  0  0
 16 17  1  0  0  0  0
 16 27  1  0  0  0  0
 17 18  1  0  0  0  0
 17 22  2  0  0  0  0
 18 19  2  0  0  0  0
 18 26  1  0  0  0  0
 19 20  1  0  0  0  0
 19 25  1  0  0  0  0
 20 21  2  0  0  0  0
 20 24  1  0  0  0  0
 21 22  1  0  0  0  0
 21 23  1  0  0  0  0
 29 30  1  0  0  0  0
 29 36  1  0  0  0  0
 29 37  1  0  0  0  0
 30 31  1  0  0  0  0
 30 35  1  0  0  0  0
 31 32  1  0  0  0  0
 31 33  1  0  0  0  0
 31 34  1  0  0  0  0
 38 39  1  0  0  0  0
 38 44  2  0  0  0  0
 39 40  2  0  0  0  0
 39 49  1  0  0  0  0
 40 41  1  0  0  0  0
 40 42  1  0  0  0  0
 42 43  2  0  0  0  0
 42 48  1  0  0  0  0
 43 44  1  0  0  0  0
 43 47  1  0  0  0  0
 44 45  1  0  0  0  0
 45 46  2  0  0  0  0
M  END
$$$$
mol54_score_23.9079
  PyMOL2.5          3D                             0

 40 43  0  0  0  0  0  0  0  0999 V2000
   -9.4280   -3.8890  -22.7470 C   0  0  0  0  0  0  0  0  0  0  0  0
   -8.6560   -2.7270  -22.3640 N   0  0  0  0  0  0  0  0  0  0  0  0
   -8.6910   -1.4710  -22.9000 C   0  0  0  0  0  0  0  0  0  0  0  0
   -9.5700   -1.0770  -24.0410 C   0  0  0  0  0  0  0  0  0  0  0  0
  -10.9920   -0.8420  -23.5820 C   0  0  0  0  0  0  0  0  0  0  0  0
  -11.2910    0.2930  -22.8320 C   0  0  0  0  0  0  0  0  0  0  0  0
  -12.5870    0.5180  -22.3860 C   0  0  0  0  0  0  0  0  0  0  0  0
  -13.5930   -0.3980  -22.6740 C   0  0  0  0  0  0  0  0  0  0  0  0
  -13.2980   -1.5480  -23.3970 C   0  0  0  0  0  0  0  0  0  0  0  0
  -12.0000   -1.7640  -23.8480 C   0  0  0  0  0  0  0  0  0  0  0  0
  -11.7660   -2.6620  -24.4120 H   0  0  0  0  0  0  0  0  0  0  0  0
  -14.0770   -2.2750  -23.6040 H   0  0  0  0  0  0  0  0  0  0  0  0
  -14.6090   -0.2240  -22.3380 H   0  0  0  0  0  0  0  0  0  0  0  0
  -12.8140    1.4090  -21.8090 H   0  0  0  0  0  0  0  0  0  0  0  0
  -10.5010    1.0040  -22.6100 H   0  0  0  0  0  0  0  0  0  0  0  0
   -9.1370   -0.1650  -24.4660 H   0  0  0  0  0  0  0  0  0  0  0  0
   -9.5450   -1.8380  -24.8270 H   0  0  0  0  0  0  0  0  0  0  0  0
   -7.9540   -0.6320  -22.2350 N   0  0  0  0  0  0  0  0  0  0  0  0
   -7.4250   -1.3590  -21.2080 N   0  0  0  0  0  0  0  0  0  0  0  0
   -6.6110   -0.8040  -20.1920 C   0  0  0  0  0  0  0  0  0  0  0  0
   -6.8990   -1.0480  -18.8710 C   0  0  0  0  0  0  0  0  0  0  0  0
   -6.1980   -0.5390  -17.8320 N   0  0  0  0  0  0  0  0  0  0  0  0
   -5.1640    0.2190  -18.0900 C   0  0  0  0  0  0  0  0  0  0  0  0
   -4.7290    0.5270  -19.4020 C   0  0  0  0  0  0  0  0  0  0  0  0
   -3.5990    1.3560  -19.6270 C   0  0  0  0  0  0  0  0  0  0  0  0
   -3.1940    1.6330  -20.9030 C   0  0  0  0  0  0  0  0  0  0  0  0
   -3.8950    1.0760  -21.9980 C   0  0  0  0  0  0  0  0  0  0  0  0
   -4.9840    0.2630  -21.8060 C   0  0  0  0  0  0  0  0  0  0  0  0
   -5.4590   -0.0110  -20.4990 C   0  0  0  0  0  0  0  0  0  0  0  0
   -5.5300   -0.1590  -22.6420 H   0  0  0  0  0  0  0  0  0  0  0  0
   -3.5540    1.2840  -23.0060 H   0  0  0  0  0  0  0  0  0  0  0  0
   -2.3240    2.2580  -21.0910 H   0  0  0  0  0  0  0  0  0  0  0  0
   -3.0650    1.7670  -18.7710 H   0  0  0  0  0  0  0  0  0  0  0  0
   -4.6150    0.6180  -17.2290 H   0  0  0  0  0  0  0  0  0  0  0  0
   -7.7360   -1.6760  -18.5840 H   0  0  0  0  0  0  0  0  0  0  0  0
   -7.7940   -2.6880  -21.2690 C   0  0  0  0  0  0  0  0  0  0  0  0
   -7.3810   -3.5910  -20.5760 O   0  0  0  0  0  0  0  0  0  0  0  0
   -9.4830   -4.0020  -23.8330 H   0  0  0  0  0  0  0  0  0  0  0  0
  -10.4450   -3.8750  -22.3460 H   0  0  0  0  0  0  0  0  0  0  0  0
   -8.9300   -4.7660  -22.3480 H   0  0  0  0  0  0  0  0  0  0  0  0
  1  2  1  0  0  0  0
  1 38  1  0  0  0  0
  1 39  1  0  0  0  0
  1 40  1  0  0  0  0
  2  3  1  0  0  0  0
  2 36  1  0  0  0  0
  3  4  1  0  0  0  0
  3 18  2  0  0  0  0
  4  5  1  0  0  0  0
  4 16  1  0  0  0  0
  4 17  1  0  0  0  0
  5  6  2  0  0  0  0
  5 10  1  0  0  0  0
  6  7  1  0  0  0  0
  6 15  1  0  0  0  0
  7  8  2  0  0  0  0
  7 14  1  0  0  0  0
  8  9  1  0  0  0  0
  8 13  1  0  0  0  0
  9 10  2  0  0  0  0
  9 12  1  0  0  0  0
 10 11  1  0  0  0  0
 18 19  1  0  0  0  0
 19 20  1  0  0  0  0
 19 36  1  0  0  0  0
 20 21  2  0  0  0  0
 20 29  1  0  0  0  0
 21 22  1  0  0  0  0
 21 35  1  0  0  0  0
 22 23  2  0  0  0  0
 23 24  1  0  0  0  0
 23 34  1  0  0  0  0
 24 25  1  0  0  0  0
 24 29  2  0  0  0  0
 25 26  2  0  0  0  0
 25 33  1  0  0  0  0
 26 27  1  0  0  0  0
 26 32  1  0  0  0  0
 27 28  2  0  0  0  0
 27 31  1  0  0  0  0
 28 29  1  0  0  0  0
 28 30  1  0  0  0  0
 36 37  2  0  0  0  0
M  END
$$$$
mol55_score_23.4833
  PyMOL2.5          3D                             0

 61 66  0  0  1  0  0  0  0  0999 V2000
   -7.0050   -5.4640  -25.0500 C   0  0  0  0  0  0  0  0  0  0  0  0
   -7.3270   -4.8020  -23.8540 O   0  0  0  0  0  0  0  0  0  0  0  0
   -7.9840   -3.5820  -24.0790 C   0  0  0  0  0  0  0  0  0  0  0  0
   -8.2850   -2.9260  -22.7350 C   0  0  1  0  0  0  0  0  0  0  0  0
   -7.0050   -2.5600  -21.9570 C   0  0  0  0  0  0  0  0  0  0  0  0
   -7.3870   -1.3770  -21.2090 N   0  0  0  0  0  0  0  0  0  0  0  0
   -6.6020   -0.8060  -20.1800 C   0  0  0  0  0  0  0  0  0  0  0  0
   -6.9160   -1.0410  -18.8660 C   0  0  0  0  0  0  0  0  0  0  0  0
   -6.2110   -0.5500  -17.8200 N   0  0  0  0  0  0  0  0  0  0  0  0
   -5.1790    0.2110  -18.0850 C   0  0  0  0  0  0  0  0  0  0  0  0
   -4.7500    0.5420  -19.4010 C   0  0  0  0  0  0  0  0  0  0  0  0
   -3.6310    1.3820  -19.6400 C   0  0  0  0  0  0  0  0  0  0  0  0
   -3.2510    1.6800  -20.9190 C   0  0  0  0  0  0  0  0  0  0  0  0
   -3.9530    1.1380  -22.0170 C   0  0  0  0  0  0  0  0  0  0  0  0
   -5.0260    0.3040  -21.8100 C   0  0  0  0  0  0  0  0  0  0  0  0
   -5.4660    0.0020  -20.4920 C   0  0  0  0  0  0  0  0  0  0  0  0
   -5.5850   -0.0720  -22.6610 H   0  0  0  0  0  0  0  0  0  0  0  0
   -3.6340    1.3950  -23.0240 H   0  0  0  0  0  0  0  0  0  0  0  0
   -2.3930    2.3200  -21.1000 H   0  0  0  0  0  0  0  0  0  0  0  0
   -3.0870    1.7710  -18.7860 H   0  0  0  0  0  0  0  0  0  0  0  0
   -4.6140    0.6050  -17.2380 H   0  0  0  0  0  0  0  0  0  0  0  0
   -7.7770   -1.6590  -18.6200 H   0  0  0  0  0  0  0  0  0  0  0  0
   -8.5870   -0.8200  -21.5870 C   0  0  0  0  0  0  0  0  0  0  0  0
   -9.1040    0.1430  -21.0560 O   0  0  0  0  0  0  0  0  0  0  0  0
   -9.1210   -1.6170  -22.8010 C   0  0  1  0  0  0  0  0  0  0  0  0
   -8.8200   -0.8420  -24.1090 C   0  0  0  0  0  0  0  0  0  0  0  0
   -9.6160    0.3610  -24.2140 N   0  0  0  0  0  0  0  0  0  0  0  0
   -8.9880    1.5980  -24.6370 C   0  0  0  0  0  0  0  0  0  0  0  0
   -8.1910    2.2630  -23.5640 C   0  0  0  0  0  0  0  0  0  0  0  0
   -6.8520    2.3780  -23.3960 C   0  0  0  0  0  0  0  0  0  0  0  0
   -6.6380    3.1120  -22.2540 N   0  3  0  0  0  0  0  0  0  0  0  0
   -7.8150    3.4560  -21.7300 C   0  0  0  0  0  0  0  0  0  0  0  0
   -8.7810    2.9520  -22.5150 N   0  0  0  0  0  0  0  0  0  0  0  0
   -9.7620    2.8970  -22.2410 H   0  0  0  0  0  0  0  0  0  0  0  0
   -7.9530    4.1010  -20.8740 H   0  0  0  0  0  0  0  0  0  0  0  0
   -5.7310    3.1730  -21.8070 H   0  0  0  0  0  0  0  0  0  0  0  0
   -6.0150    1.9860  -23.9510 H   0  0  0  0  0  0  0  0  0  0  0  0
   -9.8080    2.2360  -24.9690 H   0  0  0  0  0  0  0  0  0  0  0  0
   -8.3620    1.3860  -25.5080 H   0  0  0  0  0  0  0  0  0  0  0  0
  -10.9700    0.3270  -24.0540 C   0  0  0  0  0  0  0  0  0  0  0  0
  -11.7010    1.2260  -24.4420 O   0  0  0  0  0  0  0  0  0  0  0  0
  -11.4940   -0.8610  -23.3120 C   0  0  0  0  0  0  0  0  0  0  0  0
  -12.8750   -0.9350  -23.1480 C   0  0  0  0  0  0  0  0  0  0  0  0
  -13.4140   -1.8340  -22.2560 C   0  0  0  0  0  0  0  0  0  0  0  0
  -12.5470   -2.6870  -21.5770 C   0  0  0  0  0  0  0  0  0  0  0  0
  -13.1960   -3.7080  -20.3400 Cl  0  0  0  0  0  0  0  0  0  0  0  0
  -11.1850   -2.6950  -21.8110 C   0  0  0  0  0  0  0  0  0  0  0  0
  -10.6250   -1.7690  -22.6910 C   0  0  0  0  0  0  0  0  0  0  0  0
  -10.5680   -3.4100  -21.2800 H   0  0  0  0  0  0  0  0  0  0  0  0
  -14.4740   -1.8650  -22.0370 H   0  0  0  0  0  0  0  0  0  0  0  0
  -13.4820   -0.2350  -23.7100 H   0  0  0  0  0  0  0  0  0  0  0  0
   -9.0430   -1.5010  -24.9590 H   0  0  0  0  0  0  0  0  0  0  0  0
   -7.7610   -0.5660  -24.1570 H   0  0  0  0  0  0  0  0  0  0  0  0
   -6.1640   -2.3560  -22.6350 H   0  0  0  0  0  0  0  0  0  0  0  0
   -6.6950   -3.3580  -21.2800 H   0  0  0  0  0  0  0  0  0  0  0  0
   -8.8390   -3.6590  -22.1460 H   0  0  0  0  0  0  0  0  0  0  0  0
   -8.9200   -3.7460  -24.6420 H   0  0  0  0  0  0  0  0  0  0  0  0
   -7.3470   -2.9180  -24.6900 H   0  0  0  0  0  0  0  0  0  0  0  0
   -6.5400   -6.4160  -24.7850 H   0  0  0  0  0  0  0  0  0  0  0  0
   -7.8980   -5.6680  -25.6610 H   0  0  0  0  0  0  0  0  0  0  0  0
   -6.2960   -4.8850  -25.6610 H   0  0  0  0  0  0  0  0  0  0  0  0
  1  2  1  0  0  0  0
  1 59  1  0  0  0  0
  1 60  1  0  0  0  0
  1 61  1  0  0  0  0
  2  3  1  0  0  0  0
  3  4  1  0  0  0  0
  3 57  1  0  0  0  0
  3 58  1  0  0  0  0
  4  5  1  0  0  0  0
  4 25  1  0  0  0  0
  4 56  1  0  0  0  0
  5  6  1  0  0  0  0
  5 54  1  0  0  0  0
  5 55  1  0  0  0  0
  6  7  1  0  0  0  0
  6 23  1  0  0  0  0
  7  8  2  0  0  0  0
  7 16  1  0  0  0  0
  8  9  1  0  0  0  0
  8 22  1  0  0  0  0
  9 10  2  0  0  0  0
 10 11  1  0  0  0  0
 10 21  1  0  0  0  0
 11 12  1  0  0  0  0
 11 16  2  0  0  0  0
 12 13  2  0  0  0  0
 12 20  1  0  0  0  0
 13 14  1  0  0  0  0
 13 19  1  0  0  0  0
 14 15  2  0  0  0  0
 14 18  1  0  0  0  0
 15 16  1  0  0  0  0
 15 17  1  0  0  0  0
 23 24  2  0  0  0  0
 23 25  1  0  0  0  0
 25 26  1  0  0  0  0
 25 48  1  0  0  0  0
 26 27  1  0  0  0  0
 26 52  1  0  0  0  0
 26 53  1  0  0  0  0
 27 28  1  0  0  0  0
 27 40  1  0  0  0  0
 28 29  1  0  0  0  0
 28 38  1  0  0  0  0
 28 39  1  0  0  0  0
 29 30  2  0  0  0  0
 29 33  1  0  0  0  0
 30 31  1  0  0  0  0
 30 37  1  0  0  0  0
 31 32  2  0  0  0  0
 31 36  1  0  0  0  0
 32 33  1  0  0  0  0
 32 35  1  0  0  0  0
 33 34  1  0  0  0  0
 40 41  2  0  0  0  0
 40 42  1  0  0  0  0
 42 43  2  0  0  0  0
 42 48  1  0  0  0  0
 43 44  1  0  0  0  0
 43 51  1  0  0  0  0
 44 45  2  0  0  0  0
 44 50  1  0  0  0  0
 45 46  1  0  0  0  0
 45 47  1  0  0  0  0
 47 48  2  0  0  0  0
 47 49  1  0  0  0  0
M  END
$$$$
mol56_score_27.1886
  PyMOL2.5          3D                             0

 57 62  0  0  1  0  0  0  0  0999 V2000
  -10.4590   -1.1460  -23.2270 C   0  0  0  0  0  0  0  0  0  0  0  0
   -9.0110   -1.5040  -22.9070 C   0  0  1  0  0  0  0  0  0  0  0  0
   -8.3630   -0.5390  -21.9050 C   0  0  0  0  0  0  0  0  0  0  0  0
   -7.3680   -1.3540  -21.2310 N   0  0  0  0  0  0  0  0  0  0  0  0
   -6.5680   -0.8490  -20.1840 C   0  0  0  0  0  0  0  0  0  0  0  0
   -6.8870   -1.0890  -18.8690 C   0  0  0  0  0  0  0  0  0  0  0  0
   -6.2070   -0.5640  -17.8200 N   0  0  0  0  0  0  0  0  0  0  0  0
   -5.1810    0.2040  -18.0840 C   0  0  0  0  0  0  0  0  0  0  0  0
   -4.7330    0.5090  -19.4020 C   0  0  0  0  0  0  0  0  0  0  0  0
   -3.6080    1.3360  -19.6410 C   0  0  0  0  0  0  0  0  0  0  0  0
   -3.2170    1.6170  -20.9190 C   0  0  0  0  0  0  0  0  0  0  0  0
   -3.9260    1.0870  -22.0210 C   0  0  0  0  0  0  0  0  0  0  0  0
   -5.0140    0.2710  -21.8170 C   0  0  0  0  0  0  0  0  0  0  0  0
   -5.4440   -0.0250  -20.4950 C   0  0  0  0  0  0  0  0  0  0  0  0
   -5.5500   -0.1510  -22.6620 H   0  0  0  0  0  0  0  0  0  0  0  0
   -3.6130    1.3310  -23.0310 H   0  0  0  0  0  0  0  0  0  0  0  0
   -2.3610    2.2630  -21.0990 H   0  0  0  0  0  0  0  0  0  0  0  0
   -3.0900    1.7550  -18.7840 H   0  0  0  0  0  0  0  0  0  0  0  0
   -4.6400    0.6340  -17.2390 H   0  0  0  0  0  0  0  0  0  0  0  0
   -7.7310   -1.7280  -18.6150 H   0  0  0  0  0  0  0  0  0  0  0  0
   -7.5890   -2.7050  -21.3590 C   0  0  0  0  0  0  0  0  0  0  0  0
   -6.9030   -3.5560  -20.8350 O   0  0  0  0  0  0  0  0  0  0  0  0
   -8.7960   -2.9200  -22.2780 C   0  0  1  0  0  0  0  0  0  0  0  0
   -9.9870   -3.3350  -21.3990 C   0  0  0  0  0  0  0  0  0  0  0  0
  -11.1120   -3.8270  -22.1600 N   0  0  0  0  0  0  0  0  0  0  0  0
  -12.4550   -3.8020  -21.5870 C   0  0  0  0  0  0  0  0  0  0  0  0
  -13.3370   -2.7490  -22.2050 C   0  0  0  0  0  0  0  0  0  0  0  0
  -13.6140   -1.6210  -21.5670 N   0  0  0  0  0  0  0  0  0  0  0  0
  -14.3800   -0.7730  -22.2630 C   0  0  0  0  0  0  0  0  0  0  0  0
  -14.8260   -1.0020  -23.5390 C   0  0  0  0  0  0  0  0  0  0  0  0
  -14.5240   -2.2350  -24.0810 C   0  0  0  0  0  0  0  0  0  0  0  0
  -13.8190   -3.1140  -23.3960 N   0  0  0  0  0  0  0  0  0  0  0  0
  -14.8440   -2.5340  -25.0760 H   0  0  0  0  0  0  0  0  0  0  0  0
  -15.3830   -0.2380  -24.0410 H   0  0  0  0  0  0  0  0  0  0  0  0
  -14.6800    0.1500  -21.8010 H   0  0  0  0  0  0  0  0  0  0  0  0
  -12.4630   -3.7500  -20.5000 H   0  0  0  0  0  0  0  0  0  0  0  0
  -12.8900   -4.7380  -21.9180 H   0  0  0  0  0  0  0  0  0  0  0  0
  -10.9070   -4.7010  -23.1850 C   0  0  0  0  0  0  0  0  0  0  0  0
  -11.8200   -5.3480  -23.6560 O   0  0  0  0  0  0  0  0  0  0  0  0
   -9.5330   -4.8210  -23.7400 C   0  0  0  0  0  0  0  0  0  0  0  0
   -9.3150   -5.7580  -24.7490 C   0  0  0  0  0  0  0  0  0  0  0  0
   -8.0750   -5.8710  -25.3450 C   0  0  0  0  0  0  0  0  0  0  0  0
   -7.0690   -5.0180  -24.9050 C   0  0  0  0  0  0  0  0  0  0  0  0
   -5.8700   -5.0880  -25.5020 F   0  0  0  0  0  0  0  0  0  0  0  0
   -7.2570   -4.0910  -23.9010 C   0  0  0  0  0  0  0  0  0  0  0  0
   -8.5160   -3.9830  -23.3040 C   0  0  0  0  0  0  0  0  0  0  0  0
   -6.4380   -3.4530  -23.5900 H   0  0  0  0  0  0  0  0  0  0  0  0
   -7.8650   -6.5750  -26.1440 H   0  0  0  0  0  0  0  0  0  0  0  0
  -10.1370   -6.3940  -25.0510 H   0  0  0  0  0  0  0  0  0  0  0  0
   -9.6630   -4.1060  -20.7070 H   0  0  0  0  0  0  0  0  0  0  0  0
  -10.3050   -2.4660  -20.8220 H   0  0  0  0  0  0  0  0  0  0  0  0
   -9.1060   -0.1640  -21.1870 H   0  0  0  0  0  0  0  0  0  0  0  0
   -7.9040    0.3250  -22.3950 H   0  0  0  0  0  0  0  0  0  0  0  0
   -8.4270   -1.4840  -23.8360 H   0  0  0  0  0  0  0  0  0  0  0  0
  -11.0500   -1.0750  -22.3070 H   0  0  0  0  0  0  0  0  0  0  0  0
  -10.5280   -0.1830  -23.7390 H   0  0  0  0  0  0  0  0  0  0  0  0
  -10.9190   -1.9170  -23.8550 H   0  0  0  0  0  0  0  0  0  0  0  0
  1  2  1  0  0  0  0
  1 55  1  0  0  0  0
  1 56  1  0  0  0  0
  1 57  1  0  0  0  0
  2  3  1  0  0  0  0
  2 23  1  0  0  0  0
  2 54  1  0  0  0  0
  3  4  1  0  0  0  0
  3 52  1  0  0  0  0
  3 53  1  0  0  0  0
  4  5  1  0  0  0  0
  4 21  1  0  0  0  0
  5  6  2  0  0  0  0
  5 14  1  0  0  0  0
  6  7  1  0  0  0  0
  6 20  1  0  0  0  0
  7  8  2  0  0  0  0
  8  9  1  0  0  0  0
  8 19  1  0  0  0  0
  9 10  1  0  0  0  0
  9 14  2  0  0  0  0
 10 11  2  0  0  0  0
 10 18  1  0  0  0  0
 11 12  1  0  0  0  0
 11 17  1  0  0  0  0
 12 13  2  0  0  0  0
 12 16  1  0  0  0  0
 13 14  1  0  0  0  0
 13 15  1  0  0  0  0
 21 22  2  0  0  0  0
 21 23  1  0  0  0  0
 23 24  1  0  0  0  0
 23 46  1  0  0  0  0
 24 25  1  0  0  0  0
 24 50  1  0  0  0  0
 24 51  1  0  0  0  0
 25 26  1  0  0  0  0
 25 38  1  0  0  0  0
 26 27  1  0  0  0  0
 26 36  1  0  0  0  0
 26 37  1  0  0  0  0
 27 28  2  0  0  0  0
 27 32  1  0  0  0  0
 28 29  1  0  0  0  0
 29 30  2  0  0  0  0
 29 35  1  0  0  0  0
 30 31  1  0  0  0  0
 30 34  1  0  0  0  0
 31 32  2  0  0  0  0
 31 33  1  0  0  0  0
 38 39  2  0  0  0  0
 38 40  1  0  0  0  0
 40 41  2  0  0  0  0
 40 46  1  0  0  0  0
 41 42  1  0  0  0  0
 41 49  1  0  0  0  0
 42 43  2  0  0  0  0
 42 48  1  0  0  0  0
 43 44  1  0  0  0  0
 43 45  1  0  0  0  0
 45 46  2  0  0  0  0
 45 47  1  0  0  0  0
M  END
$$$$
mol57_score_23.6629
  PyMOL2.5          3D                             0

 59 63  0  0  1  0  0  0  0  0999 V2000
  -14.2780   -0.1340  -23.1750 C   0  0  0  0  0  0  0  0  0  0  0  0
  -13.7410   -1.3050  -22.5090 N   0  0  0  0  0  0  0  0  0  0  0  0
  -13.1320   -2.3280  -23.1750 C   0  0  0  0  0  0  0  0  0  0  0  0
  -12.9870   -2.3310  -24.3870 O   0  0  0  0  0  0  0  0  0  0  0  0
  -12.5780   -3.4430  -22.2680 C   0  0  0  0  0  0  0  0  0  0  0  0
  -11.1850   -3.7590  -22.5470 N   0  0  0  0  0  0  0  0  0  0  0  0
  -10.1090   -3.2790  -21.6760 C   0  0  0  0  0  0  0  0  0  0  0  0
   -8.7910   -2.9530  -22.4390 C   0  0  2  0  0  0  0  0  0  0  0  0
   -7.6520   -2.7760  -21.3950 C   0  0  0  0  0  0  0  0  0  0  0  0
   -7.0980   -3.6530  -20.7620 O   0  0  0  0  0  0  0  0  0  0  0  0
   -7.3260   -1.4370  -21.2890 N   0  0  0  0  0  0  0  0  0  0  0  0
   -6.5560   -0.9190  -20.2150 C   0  0  0  0  0  0  0  0  0  0  0  0
   -6.8810   -1.1730  -18.9060 C   0  0  0  0  0  0  0  0  0  0  0  0
   -6.2400   -0.6150  -17.8490 N   0  0  0  0  0  0  0  0  0  0  0  0
   -5.2380    0.1930  -18.0890 C   0  0  0  0  0  0  0  0  0  0  0  0
   -4.7780    0.5240  -19.3960 C   0  0  0  0  0  0  0  0  0  0  0  0
   -3.6660    1.3780  -19.6260 C   0  0  0  0  0  0  0  0  0  0  0  0
   -3.2690    1.6690  -20.9030 C   0  0  0  0  0  0  0  0  0  0  0  0
   -3.9650    1.1270  -22.0070 C   0  0  0  0  0  0  0  0  0  0  0  0
   -5.0360    0.2940  -21.8070 C   0  0  0  0  0  0  0  0  0  0  0  0
   -5.4660   -0.0330  -20.4950 C   0  0  0  0  0  0  0  0  0  0  0  0
   -5.5650   -0.1360  -22.6500 H   0  0  0  0  0  0  0  0  0  0  0  0
   -3.6340    1.3610  -23.0140 H   0  0  0  0  0  0  0  0  0  0  0  0
   -2.4060    2.3050  -21.0800 H   0  0  0  0  0  0  0  0  0  0  0  0
   -3.1340    1.7840  -18.7690 H   0  0  0  0  0  0  0  0  0  0  0  0
   -4.7320    0.6260  -17.2250 H   0  0  0  0  0  0  0  0  0  0  0  0
   -7.7010   -1.8460  -18.6610 H   0  0  0  0  0  0  0  0  0  0  0  0
   -8.2820   -0.5930  -21.9740 C   0  0  0  0  0  0  0  0  0  0  0  0
   -8.8730   -1.4840  -23.0930 C   0  0  0  0  0  0  0  0  0  0  0  0
  -10.2730   -0.9360  -23.4130 C   0  0  0  0  0  0  0  0  0  0  0  0
  -10.8180   -1.5760  -24.1110 H   0  0  0  0  0  0  0  0  0  0  0  0
  -10.9000   -0.7930  -22.5230 H   0  0  0  0  0  0  0  0  0  0  0  0
  -10.1630    0.0560  -23.8680 H   0  0  0  0  0  0  0  0  0  0  0  0
   -8.0540   -1.4140  -24.3890 C   0  0  0  0  0  0  0  0  0  0  0  0
   -6.9980   -1.6670  -24.2370 H   0  0  0  0  0  0  0  0  0  0  0  0
   -8.1130   -0.4080  -24.8170 H   0  0  0  0  0  0  0  0  0  0  0  0
   -8.4730   -2.1180  -25.1180 H   0  0  0  0  0  0  0  0  0  0  0  0
   -7.8010    0.3140  -22.3530 H   0  0  0  0  0  0  0  0  0  0  0  0
   -9.0740   -0.2750  -21.2710 H   0  0  0  0  0  0  0  0  0  0  0  0
   -8.4860   -4.1430  -23.3550 C   0  0  0  0  0  0  0  0  0  0  0  0
   -7.1730   -4.4810  -23.7320 C   0  0  0  0  0  0  0  0  0  0  0  0
   -6.9450   -5.4850  -24.6610 C   0  0  0  0  0  0  0  0  0  0  0  0
   -5.3230   -5.8520  -25.1690 Cl  0  0  0  0  0  0  0  0  0  0  0  0
   -7.9870   -6.2240  -25.2170 C   0  0  0  0  0  0  0  0  0  0  0  0
   -9.2710   -5.9370  -24.8060 C   0  0  0  0  0  0  0  0  0  0  0  0
   -9.5240   -4.9230  -23.8830 C   0  0  0  0  0  0  0  0  0  0  0  0
  -10.9540   -4.6910  -23.5230 C   0  0  0  0  0  0  0  0  0  0  0  0
  -11.8520   -5.2890  -24.1020 O   0  0  0  0  0  0  0  0  0  0  0  0
  -10.1220   -6.4830  -25.1950 H   0  0  0  0  0  0  0  0  0  0  0  0
   -7.7820   -7.0130  -25.9330 H   0  0  0  0  0  0  0  0  0  0  0  0
   -6.3220   -3.9810  -23.2830 H   0  0  0  0  0  0  0  0  0  0  0  0
   -9.8740   -4.0120  -20.8990 H   0  0  0  0  0  0  0  0  0  0  0  0
  -10.4410   -2.3760  -21.1570 H   0  0  0  0  0  0  0  0  0  0  0  0
  -13.1480   -4.3570  -22.4630 H   0  0  0  0  0  0  0  0  0  0  0  0
  -12.6870   -3.1900  -21.2100 H   0  0  0  0  0  0  0  0  0  0  0  0
  -13.8590   -1.3900  -21.5120 H   0  0  0  0  0  0  0  0  0  0  0  0
  -15.3670   -0.0580  -23.0800 H   0  0  0  0  0  0  0  0  0  0  0  0
  -14.0350   -0.1950  -24.2340 H   0  0  0  0  0  0  0  0  0  0  0  0
  -13.8270    0.7780  -22.7740 H   0  0  0  0  0  0  0  0  0  0  0  0
  1  2  1  0  0  0  0
  1 57  1  0  0  0  0
  1 58  1  0  0  0  0
  1 59  1  0  0  0  0
  2  3  1  0  0  0  0
  2 56  1  0  0  0  0
  3  4  2  0  0  0  0
  3  5  1  0  0  0  0
  5  6  1  0  0  0  0
  5 54  1  0  0  0  0
  5 55  1  0  0  0  0
  6  7  1  0  0  0  0
  6 47  1  0  0  0  0
  7  8  1  0  0  0  0
  7 52  1  0  0  0  0
  7 53  1  0  0  0  0
  8  9  1  0  0  0  0
  8 29  1  0  0  0  0
  8 40  1  0  0  0  0
  9 10  2  0  0  0  0
  9 11  1  0  0  0  0
 11 12  1  0  0  0  0
 11 28  1  0  0  0  0
 12 13  2  0  0  0  0
 12 21  1  0  0  0  0
 13 14  1  0  0  0  0
 13 27  1  0  0  0  0
 14 15  2  0  0  0  0
 15 16  1  0  0  0  0
 15 26  1  0  0  0  0
 16 17  1  0  0  0  0
 16 21  2  0  0  0  0
 17 18  2  0  0  0  0
 17 25  1  0  0  0  0
 18 19  1  0  0  0  0
 18 24  1  0  0  0  0
 19 20  2  0  0  0  0
 19 23  1  0  0  0  0
 20 21  1  0  0  0  0
 20 22  1  0  0  0  0
 28 29  1  0  0  0  0
 28 38  1  0  0  0  0
 28 39  1  0  0  0  0
 29 30  1  0  0  0  0
 29 34  1  0  0  0  0
 30 31  1  0  0  0  0
 30 32  1  0  0  0  0
 30 33  1  0  0  0  0
 34 35  1  0  0  0  0
 34 36  1  0  0  0  0
 34 37  1  0  0  0  0
 40 41  1  0  0  0  0
 40 46  2  0  0  0  0
 41 42  2  0  0  0  0
 41 51  1  0  0  0  0
 42 43  1  0  0  0  0
 42 44  1  0  0  0  0
 44 45  2  0  0  0  0
 44 50  1  0  0  0  0
 45 46  1  0  0  0  0
 45 49  1  0  0  0  0
 46 47  1  0  0  0  0
 47 48  2  0  0  0  0
M  END
$$$$
mol58_score_16.9964
  PyMOL2.5          3D                             0

 42 45  0  0  1  0  0  0  0  0999 V2000
  -12.0400   -4.0830  -22.6740 C   0  0  0  0  0  0  0  0  0  0  0  0
  -10.6440   -4.4080  -22.8310 N   0  0  0  0  0  0  0  0  0  0  0  0
   -9.7550   -4.0080  -21.7790 C   0  0  0  0  0  0  0  0  0  0  0  0
   -8.6210   -3.1650  -22.3610 C   0  0  1  0  0  0  0  0  0  0  0  0
   -7.7130   -2.7610  -21.2120 C   0  0  0  0  0  0  0  0  0  0  0  0
   -7.3660   -3.5410  -20.3460 O   0  0  0  0  0  0  0  0  0  0  0  0
   -7.3130   -1.4440  -21.2170 N   0  0  0  0  0  0  0  0  0  0  0  0
   -6.5630   -0.8650  -20.1750 C   0  0  0  0  0  0  0  0  0  0  0  0
   -6.8960   -1.0790  -18.8590 C   0  0  0  0  0  0  0  0  0  0  0  0
   -6.2340   -0.5390  -17.8080 N   0  0  0  0  0  0  0  0  0  0  0  0
   -5.1960    0.2160  -18.0810 C   0  0  0  0  0  0  0  0  0  0  0  0
   -4.7420    0.5130  -19.3950 C   0  0  0  0  0  0  0  0  0  0  0  0
   -3.6150    1.3390  -19.6320 C   0  0  0  0  0  0  0  0  0  0  0  0
   -3.2110    1.6080  -20.9110 C   0  0  0  0  0  0  0  0  0  0  0  0
   -3.9150    1.0680  -22.0100 C   0  0  0  0  0  0  0  0  0  0  0  0
   -5.0120    0.2670  -21.8090 C   0  0  0  0  0  0  0  0  0  0  0  0
   -5.4470   -0.0290  -20.4900 C   0  0  0  0  0  0  0  0  0  0  0  0
   -5.5480   -0.1380  -22.6640 H   0  0  0  0  0  0  0  0  0  0  0  0
   -3.5890    1.3000  -23.0200 H   0  0  0  0  0  0  0  0  0  0  0  0
   -2.3520    2.2490  -21.0870 H   0  0  0  0  0  0  0  0  0  0  0  0
   -3.1000    1.7580  -18.7740 H   0  0  0  0  0  0  0  0  0  0  0  0
   -4.6540    0.6350  -17.2350 H   0  0  0  0  0  0  0  0  0  0  0  0
   -7.7510   -1.7050  -18.6130 H   0  0  0  0  0  0  0  0  0  0  0  0
   -7.6600   -0.8360  -21.9490 H   0  0  0  0  0  0  0  0  0  0  0  0
   -7.9310   -3.9660  -23.4430 C   0  0  0  0  0  0  0  0  0  0  0  0
   -6.5830   -3.7840  -23.7560 C   0  0  0  0  0  0  0  0  0  0  0  0
   -6.0150   -4.5400  -24.7720 C   0  0  0  0  0  0  0  0  0  0  0  0
   -4.3540   -4.2940  -25.2110 Cl  0  0  0  0  0  0  0  0  0  0  0  0
   -6.7490   -5.4930  -25.4750 C   0  0  0  0  0  0  0  0  0  0  0  0
   -8.0860   -5.6720  -25.1560 C   0  0  0  0  0  0  0  0  0  0  0  0
   -8.6810   -4.9070  -24.1530 C   0  0  0  0  0  0  0  0  0  0  0  0
  -10.1530   -5.0950  -23.9050 C   0  0  0  0  0  0  0  0  0  0  0  0
  -10.8230   -5.8150  -24.6280 O   0  0  0  0  0  0  0  0  0  0  0  0
   -8.6860   -6.4120  -25.6760 H   0  0  0  0  0  0  0  0  0  0  0  0
   -6.2660   -6.0690  -26.2590 H   0  0  0  0  0  0  0  0  0  0  0  0
   -5.9860   -3.0640  -23.2040 H   0  0  0  0  0  0  0  0  0  0  0  0
   -9.0370   -2.2490  -22.8090 H   0  0  0  0  0  0  0  0  0  0  0  0
  -10.3250   -3.4060  -21.0750 H   0  0  0  0  0  0  0  0  0  0  0  0
   -9.3220   -4.8710  -21.2440 H   0  0  0  0  0  0  0  0  0  0  0  0
  -12.2680   -4.1060  -21.6050 H   0  0  0  0  0  0  0  0  0  0  0  0
  -12.6420   -4.8480  -23.1560 H   0  0  0  0  0  0  0  0  0  0  0  0
  -12.2490   -3.0770  -23.0670 H   0  0  0  0  0  0  0  0  0  0  0  0
  1  2  1  0  0  0  0
  1 40  1  0  0  0  0
  1 41  1  0  0  0  0
  1 42  1  0  0  0  0
  2  3  1  0  0  0  0
  2 32  1  0  0  0  0
  3  4  1  0  0  0  0
  3 38  1  0  0  0  0
  3 39  1  0  0  0  0
  4  5  1  0  0  0  0
  4 25  1  0  0  0  0
  4 37  1  0  0  0  0
  5  6  2  0  0  0  0
  5  7  1  0  0  0  0
  7  8  1  0  0  0  0
  7 24  1  0  0  0  0
  8  9  2  0  0  0  0
  8 17  1  0  0  0  0
  9 10  1  0  0  0  0
  9 23  1  0  0  0  0
 10 11  2  0  0  0  0
 11 12  1  0  0  0  0
 11 22  1  0  0  0  0
 12 13  1  0  0  0  0
 12 17  2  0  0  0  0
 13 14  2  0  0  0  0
 13 21  1  0  0  0  0
 14 15  1  0  0  0  0
 14 20  1  0  0  0  0
 15 16  2  0  0  0  0
 15 19  1  0  0  0  0
 16 17  1  0  0  0  0
 16 18  1  0  0  0  0
 25 26  1  0  0  0  0
 25 31  2  0  0  0  0
 26 27  2  0  0  0  0
 26 36  1  0  0  0  0
 27 28  1  0  0  0  0
 27 29  1  0  0  0  0
 29 30  2  0  0  0  0
 29 35  1  0  0  0  0
 30 31  1  0  0  0  0
 30 34  1  0  0  0  0
 31 32  1  0  0  0  0
 32 33  2  0  0  0  0
M  END
$$$$
mol61_score_18.7215
  PyMOL2.5          3D                             0

 44 47  0  0  0  0  0  0  0  0999 V2000
   -8.4070    0.7610  -21.5410 O   0  0  0  0  0  0  0  0  0  0  0  0
   -8.5350   -0.4340  -21.7700 C   0  0  0  0  0  0  0  0  0  0  0  0
   -7.4740   -1.4340  -21.2690 C   0  0  0  0  0  0  0  0  0  0  0  0
   -6.5970   -0.8440  -20.1940 C   0  0  0  0  0  0  0  0  0  0  0  0
   -6.9000   -1.0600  -18.8750 C   0  0  0  0  0  0  0  0  0  0  0  0
   -6.2150   -0.5620  -17.8130 N   0  0  0  0  0  0  0  0  0  0  0  0
   -5.1830    0.2010  -18.0770 C   0  0  0  0  0  0  0  0  0  0  0  0
   -4.7450    0.5160  -19.3920 C   0  0  0  0  0  0  0  0  0  0  0  0
   -3.6120    1.3390  -19.6280 C   0  0  0  0  0  0  0  0  0  0  0  0
   -3.2240    1.6350  -20.9050 C   0  0  0  0  0  0  0  0  0  0  0  0
   -3.9520    1.1240  -22.0020 C   0  0  0  0  0  0  0  0  0  0  0  0
   -5.0530    0.3250  -21.8000 C   0  0  0  0  0  0  0  0  0  0  0  0
   -5.4760   -0.0080  -20.4850 C   0  0  0  0  0  0  0  0  0  0  0  0
   -5.6180   -0.0400  -22.6510 H   0  0  0  0  0  0  0  0  0  0  0  0
   -3.6390    1.3700  -23.0130 H   0  0  0  0  0  0  0  0  0  0  0  0
   -2.3630    2.2750  -21.0820 H   0  0  0  0  0  0  0  0  0  0  0  0
   -3.0760    1.7390  -18.7710 H   0  0  0  0  0  0  0  0  0  0  0  0
   -4.6330    0.6080  -17.2260 H   0  0  0  0  0  0  0  0  0  0  0  0
   -7.7540   -1.6820  -18.6080 H   0  0  0  0  0  0  0  0  0  0  0  0
   -6.8630   -1.7790  -22.1160 H   0  0  0  0  0  0  0  0  0  0  0  0
   -7.9810   -2.3240  -20.8720 H   0  0  0  0  0  0  0  0  0  0  0  0
   -9.6170   -0.9200  -22.4530 N   0  0  0  0  0  0  0  0  0  0  0  0
   -9.7740   -2.3140  -22.8800 C   0  0  0  0  0  0  0  0  0  0  0  0
  -10.8290   -2.4250  -23.9860 C   0  0  0  0  0  0  0  0  0  0  0  0
  -12.2160   -1.9460  -23.5420 C   0  0  0  0  0  0  0  0  0  0  0  0
  -13.2940   -1.7880  -24.6520 C   0  0  0  0  0  0  0  0  0  0  0  0
  -14.2660   -2.6860  -23.8470 C   0  0  0  0  0  0  0  0  0  0  0  0
  -13.1310   -3.0110  -22.8610 C   0  0  0  0  0  0  0  0  0  0  0  0
  -13.3730   -2.8200  -21.8080 H   0  0  0  0  0  0  0  0  0  0  0  0
  -12.7550   -4.0350  -22.9430 H   0  0  0  0  0  0  0  0  0  0  0  0
  -15.0590   -2.0820  -23.3930 H   0  0  0  0  0  0  0  0  0  0  0  0
  -14.7210   -3.5470  -24.3500 H   0  0  0  0  0  0  0  0  0  0  0  0
  -13.6540   -0.7660  -24.8040 H   0  0  0  0  0  0  0  0  0  0  0  0
  -12.9790   -2.1590  -25.6280 H   0  0  0  0  0  0  0  0  0  0  0  0
  -12.0360   -0.7280  -22.6320 C   0  0  0  0  0  0  0  0  0  0  0  0
  -10.7080    0.0080  -22.7590 C   0  0  0  0  0  0  0  0  0  0  0  0
  -10.6560    0.8180  -22.0290 H   0  0  0  0  0  0  0  0  0  0  0  0
  -10.5680    0.4660  -23.7490 H   0  0  0  0  0  0  0  0  0  0  0  0
  -12.8890   -0.0430  -22.6950 H   0  0  0  0  0  0  0  0  0  0  0  0
  -12.0230   -1.1390  -21.6280 H   0  0  0  0  0  0  0  0  0  0  0  0
  -10.5030   -1.8180  -24.8420 H   0  0  0  0  0  0  0  0  0  0  0  0
  -10.8770   -3.4610  -24.3380 H   0  0  0  0  0  0  0  0  0  0  0  0
   -8.8150   -2.6830  -23.2640 H   0  0  0  0  0  0  0  0  0  0  0  0
  -10.0430   -2.9610  -22.0290 H   0  0  0  0  0  0  0  0  0  0  0  0
  1  2  2  0  0  0  0
  2  3  1  0  0  0  0
  2 22  1  0  0  0  0
  3  4  1  0  0  0  0
  3 20  1  0  0  0  0
  3 21  1  0  0  0  0
  4  5  2  0  0  0  0
  4 13  1  0  0  0  0
  5  6  1  0  0  0  0
  5 19  1  0  0  0  0
  6  7  2  0  0  0  0
  7  8  1  0  0  0  0
  7 18  1  0  0  0  0
  8  9  1  0  0  0  0
  8 13  2  0  0  0  0
  9 10  2  0  0  0  0
  9 17  1  0  0  0  0
 10 11  1  0  0  0  0
 10 16  1  0  0  0  0
 11 12  2  0  0  0  0
 11 15  1  0  0  0  0
 12 13  1  0  0  0  0
 12 14  1  0  0  0  0
 22 23  1  0  0  0  0
 22 36  1  0  0  0  0
 23 24  1  0  0  0  0
 23 43  1  0  0  0  0
 23 44  1  0  0  0  0
 24 25  1  0  0  0  0
 24 41  1  0  0  0  0
 24 42  1  0  0  0  0
 25 26  1  0  0  0  0
 25 28  1  0  0  0  0
 25 35  1  0  0  0  0
 26 27  1  0  0  0  0
 26 33  1  0  0  0  0
 26 34  1  0  0  0  0
 27 28  1  0  0  0  0
 27 31  1  0  0  0  0
 27 32  1  0  0  0  0
 28 29  1  0  0  0  0
 28 30  1  0  0  0  0
 35 36  1  0  0  0  0
 35 39  1  0  0  0  0
 35 40  1  0  0  0  0
 36 37  1  0  0  0  0
 36 38  1  0  0  0  0
M  END
$$$$
mol62_score_21.0966
  PyMOL2.5          3D                             0

 44 47  0  0  0  0  0  0  0  0999 V2000
   -8.6130    0.7130  -21.2890 O   0  0  0  0  0  0  0  0  0  0  0  0
   -8.5680   -0.4350  -21.7020 C   0  0  0  0  0  0  0  0  0  0  0  0
   -7.4830   -1.4160  -21.2600 C   0  0  0  0  0  0  0  0  0  0  0  0
   -6.6240   -0.8270  -20.1910 C   0  0  0  0  0  0  0  0  0  0  0  0
   -6.9270   -1.0760  -18.8810 C   0  0  0  0  0  0  0  0  0  0  0  0
   -6.2560   -0.5890  -17.8090 N   0  0  0  0  0  0  0  0  0  0  0  0
   -5.2360    0.1940  -18.0660 C   0  0  0  0  0  0  0  0  0  0  0  0
   -4.8130    0.5540  -19.3750 C   0  0  0  0  0  0  0  0  0  0  0  0
   -3.6810    1.3730  -19.5950 C   0  0  0  0  0  0  0  0  0  0  0  0
   -3.3090    1.7180  -20.8650 C   0  0  0  0  0  0  0  0  0  0  0  0
   -4.0680    1.2690  -21.9660 C   0  0  0  0  0  0  0  0  0  0  0  0
   -5.1580    0.4580  -21.7820 C   0  0  0  0  0  0  0  0  0  0  0  0
   -5.5480    0.0600  -20.4760 C   0  0  0  0  0  0  0  0  0  0  0  0
   -5.7100    0.0950  -22.6440 H   0  0  0  0  0  0  0  0  0  0  0  0
   -3.7540    1.5370  -22.9710 H   0  0  0  0  0  0  0  0  0  0  0  0
   -2.4350    2.3400  -21.0310 H   0  0  0  0  0  0  0  0  0  0  0  0
   -3.1200    1.7200  -18.7320 H   0  0  0  0  0  0  0  0  0  0  0  0
   -4.6800    0.5730  -17.2090 H   0  0  0  0  0  0  0  0  0  0  0  0
   -7.7730   -1.7190  -18.6430 H   0  0  0  0  0  0  0  0  0  0  0  0
   -7.9880   -2.3100  -20.8650 H   0  0  0  0  0  0  0  0  0  0  0  0
   -6.8850   -1.7210  -22.1300 H   0  0  0  0  0  0  0  0  0  0  0  0
   -9.4990   -0.9210  -22.5710 N   0  0  0  0  0  0  0  0  0  0  0  0
   -9.5360   -2.2410  -23.1850 C   0  0  0  0  0  0  0  0  0  0  0  0
  -10.8200   -2.9660  -22.7680 C   0  0  0  0  0  0  0  0  0  0  0  0
  -12.0330   -2.0030  -22.7770 C   0  0  0  0  0  0  0  0  0  0  0  0
  -13.2920   -2.6680  -23.3010 C   0  0  0  0  0  0  0  0  0  0  0  0
  -14.6820   -2.1990  -22.9710 C   0  0  0  0  0  0  0  0  0  0  0  0
  -14.1670   -3.4920  -22.4100 C   0  0  0  0  0  0  0  0  0  0  0  0
  -13.9200   -3.4860  -21.3520 H   0  0  0  0  0  0  0  0  0  0  0  0
  -14.5280   -4.4440  -22.7810 H   0  0  0  0  0  0  0  0  0  0  0  0
  -14.8410   -1.3640  -22.2870 H   0  0  0  0  0  0  0  0  0  0  0  0
  -15.3680   -2.2160  -23.8110 H   0  0  0  0  0  0  0  0  0  0  0  0
  -13.2200   -3.0200  -24.3300 H   0  0  0  0  0  0  0  0  0  0  0  0
  -11.7270   -0.7180  -23.5650 C   0  0  0  0  0  0  0  0  0  0  0  0
  -10.4880    0.0300  -23.0600 C   0  0  0  0  0  0  0  0  0  0  0  0
  -10.0540    0.6130  -23.8870 H   0  0  0  0  0  0  0  0  0  0  0  0
  -10.7060    0.7410  -22.2530 H   0  0  0  0  0  0  0  0  0  0  0  0
  -12.5830   -0.0430  -23.4990 H   0  0  0  0  0  0  0  0  0  0  0  0
  -11.6030   -0.9420  -24.6360 H   0  0  0  0  0  0  0  0  0  0  0  0
  -12.2070   -1.7150  -21.7290 H   0  0  0  0  0  0  0  0  0  0  0  0
  -10.7040   -3.3810  -21.7590 H   0  0  0  0  0  0  0  0  0  0  0  0
  -10.9710   -3.8290  -23.4230 H   0  0  0  0  0  0  0  0  0  0  0  0
   -9.5340   -2.1100  -24.2770 H   0  0  0  0  0  0  0  0  0  0  0  0
   -8.6480   -2.8270  -22.9350 H   0  0  0  0  0  0  0  0  0  0  0  0
  1  2  2  0  0  0  0
  2  3  1  0  0  0  0
  2 22  1  0  0  0  0
  3  4  1  0  0  0  0
  3 20  1  0  0  0  0
  3 21  1  0  0  0  0
  4  5  2  0  0  0  0
  4 13  1  0  0  0  0
  5  6  1  0  0  0  0
  5 19  1  0  0  0  0
  6  7  2  0  0  0  0
  7  8  1  0  0  0  0
  7 18  1  0  0  0  0
  8  9  1  0  0  0  0
  8 13  2  0  0  0  0
  9 10  2  0  0  0  0
  9 17  1  0  0  0  0
 10 11  1  0  0  0  0
 10 16  1  0  0  0  0
 11 12  2  0  0  0  0
 11 15  1  0  0  0  0
 12 13  1  0  0  0  0
 12 14  1  0  0  0  0
 22 23  1  0  0  0  0
 22 35  1  0  0  0  0
 23 24  1  0  0  0  0
 23 43  1  0  0  0  0
 23 44  1  0  0  0  0
 24 25  1  0  0  0  0
 24 41  1  0  0  0  0
 24 42  1  0  0  0  0
 25 26  1  0  0  0  0
 25 34  1  0  0  0  0
 25 40  1  0  0  0  0
 26 27  1  0  0  0  0
 26 28  1  0  0  0  0
 26 33  1  0  0  0  0
 27 28  1  0  0  0  0
 27 31  1  0  0  0  0
 27 32  1  0  0  0  0
 28 29  1  0  0  0  0
 28 30  1  0  0  0  0
 34 35  1  0  0  0  0
 34 38  1  0  0  0  0
 34 39  1  0  0  0  0
 35 36  1  0  0  0  0
 35 37  1  0  0  0  0
M  END
$$$$
mol63_score_25.5786
  PyMOL2.5          3D                             0

 57 61  0  0  1  0  0  0  0  0999 V2000
  -14.7410   -0.6830  -22.1880 C   0  0  0  0  0  0  0  0  0  0  0  0
  -13.8580   -1.7130  -21.6770 N   0  0  0  0  0  0  0  0  0  0  0  0
  -13.2560   -2.5950  -22.5340 C   0  0  0  0  0  0  0  0  0  0  0  0
  -13.4710   -2.5900  -23.7300 O   0  0  0  0  0  0  0  0  0  0  0  0
  -12.4210   -3.6810  -21.8420 C   0  0  0  0  0  0  0  0  0  0  0  0
  -11.0430   -3.7570  -22.3020 N   0  0  0  0  0  0  0  0  0  0  0  0
   -9.9460   -3.1780  -21.5380 C   0  0  0  0  0  0  0  0  0  0  0  0
   -8.7330   -2.7420  -22.4060 C   0  0  2  0  0  0  0  0  0  0  0  0
   -7.5680   -2.5630  -21.4190 C   0  0  0  0  0  0  0  0  0  0  0  0
   -6.9560   -3.4410  -20.8450 O   0  0  0  0  0  0  0  0  0  0  0  0
   -7.3460   -1.2190  -21.2280 N   0  0  0  0  0  0  0  0  0  0  0  0
   -6.5310   -0.7690  -20.1700 C   0  0  0  0  0  0  0  0  0  0  0  0
   -6.8170   -1.0900  -18.8700 C   0  0  0  0  0  0  0  0  0  0  0  0
   -6.1420   -0.5790  -17.8120 N   0  0  0  0  0  0  0  0  0  0  0  0
   -5.1400    0.2300  -18.0570 C   0  0  0  0  0  0  0  0  0  0  0  0
   -4.6950    0.5790  -19.3660 C   0  0  0  0  0  0  0  0  0  0  0  0
   -3.5690    1.4090  -19.6120 C   0  0  0  0  0  0  0  0  0  0  0  0
   -3.1910    1.7030  -20.8940 C   0  0  0  0  0  0  0  0  0  0  0  0
   -3.9050    1.1780  -21.9940 C   0  0  0  0  0  0  0  0  0  0  0  0
   -4.9890    0.3640  -21.7840 C   0  0  0  0  0  0  0  0  0  0  0  0
   -5.4130    0.0640  -20.4630 C   0  0  0  0  0  0  0  0  0  0  0  0
   -5.5260   -0.0740  -22.6180 H   0  0  0  0  0  0  0  0  0  0  0  0
   -3.5980    1.4200  -23.0070 H   0  0  0  0  0  0  0  0  0  0  0  0
   -2.3370    2.3490  -21.0790 H   0  0  0  0  0  0  0  0  0  0  0  0
   -3.0210    1.8110  -18.7660 H   0  0  0  0  0  0  0  0  0  0  0  0
   -4.6210    0.6390  -17.1900 H   0  0  0  0  0  0  0  0  0  0  0  0
   -7.6310   -1.7760  -18.6390 H   0  0  0  0  0  0  0  0  0  0  0  0
   -8.3450   -0.3780  -21.8720 C   0  0  0  0  0  0  0  0  0  0  0  0
   -8.8650   -1.2920  -22.9910 C   0  0  2  0  0  0  0  0  0  0  0  0
  -10.2280   -0.8910  -23.5460 C   0  0  0  0  0  0  0  0  0  0  0  0
  -11.2110   -0.7510  -22.5340 O   0  0  0  0  0  0  0  0  0  0  0  0
  -11.3590    0.1810  -22.3540 H   0  0  0  0  0  0  0  0  0  0  0  0
  -10.5790   -1.6720  -24.2280 H   0  0  0  0  0  0  0  0  0  0  0  0
  -10.1230    0.0470  -24.1050 H   0  0  0  0  0  0  0  0  0  0  0  0
   -8.1540   -1.2390  -23.8300 H   0  0  0  0  0  0  0  0  0  0  0  0
   -7.8890    0.5450  -22.2440 H   0  0  0  0  0  0  0  0  0  0  0  0
   -9.1410   -0.1030  -21.1570 H   0  0  0  0  0  0  0  0  0  0  0  0
   -8.4210   -3.8110  -23.4380 C   0  0  0  0  0  0  0  0  0  0  0  0
   -7.1340   -3.9580  -23.9910 C   0  0  0  0  0  0  0  0  0  0  0  0
   -6.8960   -4.9230  -24.9600 C   0  0  0  0  0  0  0  0  0  0  0  0
   -5.3090   -5.1010  -25.6590 Cl  0  0  0  0  0  0  0  0  0  0  0  0
   -7.9030   -5.7790  -25.4080 C   0  0  0  0  0  0  0  0  0  0  0  0
   -9.1620   -5.6460  -24.8590 C   0  0  0  0  0  0  0  0  0  0  0  0
   -9.4150   -4.6850  -23.8780 C   0  0  0  0  0  0  0  0  0  0  0  0
  -10.7930   -4.6480  -23.3070 C   0  0  0  0  0  0  0  0  0  0  0  0
  -11.6530   -5.3990  -23.7190 O   0  0  0  0  0  0  0  0  0  0  0  0
   -9.9890   -6.2800  -25.1680 H   0  0  0  0  0  0  0  0  0  0  0  0
   -7.6900   -6.5370  -26.1580 H   0  0  0  0  0  0  0  0  0  0  0  0
   -6.2980   -3.3560  -23.6470 H   0  0  0  0  0  0  0  0  0  0  0  0
   -9.5360   -3.8990  -20.8240 H   0  0  0  0  0  0  0  0  0  0  0  0
  -10.3320   -2.3040  -21.0140 H   0  0  0  0  0  0  0  0  0  0  0  0
  -12.9010   -4.6360  -22.1020 H   0  0  0  0  0  0  0  0  0  0  0  0
  -12.4780   -3.5590  -20.7570 H   0  0  0  0  0  0  0  0  0  0  0  0
  -13.3550   -1.5120  -20.8300 H   0  0  0  0  0  0  0  0  0  0  0  0
  -15.4470   -0.4030  -21.4050 H   0  0  0  0  0  0  0  0  0  0  0  0
  -14.2090    0.2080  -22.5440 H   0  0  0  0  0  0  0  0  0  0  0  0
  -15.3060   -1.1040  -23.0180 H   0  0  0  0  0  0  0  0  0  0  0  0
  1  2  1  0  0  0  0
  1 55  1  0  0  0  0
  1 56  1  0  0  0  0
  1 57  1  0  0  0  0
  2  3  1  0  0  0  0
  2 54  1  0  0  0  0
  3  4  2  0  0  0  0
  3  5  1  0  0  0  0
  5  6  1  0  0  0  0
  5 52  1  0  0  0  0
  5 53  1  0  0  0  0
  6  7  1  0  0  0  0
  6 45  1  0  0  0  0
  7  8  1  0  0  0  0
  7 50  1  0  0  0  0
  7 51  1  0  0  0  0
  8  9  1  0  0  0  0
  8 29  1  0  0  0  0
  8 38  1  0  0  0  0
  9 10  2  0  0  0  0
  9 11  1  0  0  0  0
 11 12  1  0  0  0  0
 11 28  1  0  0  0  0
 12 13  2  0  0  0  0
 12 21  1  0  0  0  0
 13 14  1  0  0  0  0
 13 27  1  0  0  0  0
 14 15  2  0  0  0  0
 15 16  1  0  0  0  0
 15 26  1  0  0  0  0
 16 17  1  0  0  0  0
 16 21  2  0  0  0  0
 17 18  2  0  0  0  0
 17 25  1  0  0  0  0
 18 19  1  0  0  0  0
 18 24  1  0  0  0  0
 19 20  2  0  0  0  0
 19 23  1  0  0  0  0
 20 21  1  0  0  0  0
 20 22  1  0  0  0  0
 28 29  1  0  0  0  0
 28 36  1  0  0  0  0
 28 37  1  0  0  0  0
 29 30  1  0  0  0  0
 29 35  1  0  0  0  0
 30 31  1  0  0  0  0
 30 33  1  0  0  0  0
 30 34  1  0  0  0  0
 31 32  1  0  0  0  0
 38 39  1  0  0  0  0
 38 44  2  0  0  0  0
 39 40  2  0  0  0  0
 39 49  1  0  0  0  0
 40 41  1  0  0  0  0
 40 42  1  0  0  0  0
 42 43  2  0  0  0  0
 42 48  1  0  0  0  0
 43 44  1  0  0  0  0
 43 47  1  0  0  0  0
 44 45  1  0  0  0  0
 45 46  2  0  0  0  0
M  END
$$$$
mol64_score_25.3653
  PyMOL2.5          3D                             0

 55 60  0  0  1  0  0  0  0  0999 V2000
  -10.3620   -0.9820  -23.3770 C   0  0  0  0  0  0  0  0  0  0  0  0
   -8.9420   -1.3510  -22.9600 C   0  0  1  0  0  0  0  0  0  0  0  0
   -8.3510   -0.4220  -21.8880 C   0  0  0  0  0  0  0  0  0  0  0  0
   -7.3540   -1.2620  -21.2430 N   0  0  0  0  0  0  0  0  0  0  0  0
   -6.5430   -0.8040  -20.1860 C   0  0  0  0  0  0  0  0  0  0  0  0
   -6.8440   -1.1060  -18.8830 C   0  0  0  0  0  0  0  0  0  0  0  0
   -6.1720   -0.5910  -17.8250 N   0  0  0  0  0  0  0  0  0  0  0  0
   -5.1650    0.2120  -18.0670 C   0  0  0  0  0  0  0  0  0  0  0  0
   -4.7130    0.5570  -19.3770 C   0  0  0  0  0  0  0  0  0  0  0  0
   -3.5850    1.3860  -19.6280 C   0  0  0  0  0  0  0  0  0  0  0  0
   -3.2100    1.6720  -20.9130 C   0  0  0  0  0  0  0  0  0  0  0  0
   -3.9220    1.1400  -22.0120 C   0  0  0  0  0  0  0  0  0  0  0  0
   -5.0030    0.3200  -21.7960 C   0  0  0  0  0  0  0  0  0  0  0  0
   -5.4240    0.0310  -20.4730 C   0  0  0  0  0  0  0  0  0  0  0  0
   -5.5440   -0.1320  -22.6200 H   0  0  0  0  0  0  0  0  0  0  0  0
   -3.6160    1.3730  -23.0280 H   0  0  0  0  0  0  0  0  0  0  0  0
   -2.3540    2.3150  -21.1020 H   0  0  0  0  0  0  0  0  0  0  0  0
   -3.0350    1.7870  -18.7810 H   0  0  0  0  0  0  0  0  0  0  0  0
   -4.6470    0.6250  -17.2000 H   0  0  0  0  0  0  0  0  0  0  0  0
   -7.6660   -1.7820  -18.6510 H   0  0  0  0  0  0  0  0  0  0  0  0
   -7.5820   -2.6060  -21.4140 C   0  0  0  0  0  0  0  0  0  0  0  0
   -6.9280   -3.4780  -20.8730 O   0  0  0  0  0  0  0  0  0  0  0  0
   -8.7730   -2.7870  -22.3580 C   0  0  1  0  0  0  0  0  0  0  0  0
   -9.9890   -3.1610  -21.4690 C   0  0  0  0  0  0  0  0  0  0  0  0
  -11.1190   -3.6990  -22.2160 N   0  0  0  0  0  0  0  0  0  0  0  0
  -12.4980   -3.6200  -21.7270 C   0  0  0  0  0  0  0  0  0  0  0  0
  -13.3380   -2.5530  -22.3690 C   0  0  0  0  0  0  0  0  0  0  0  0
  -13.9240   -2.6930  -23.5950 N   0  0  0  0  0  0  0  0  0  0  0  0
  -14.6470   -1.6000  -23.6930 C   0  0  0  0  0  0  0  0  0  0  0  0
  -14.4970   -0.8340  -22.6010 N   0  0  0  0  0  0  0  0  0  0  0  0
  -13.6590   -1.4430  -21.7350 N   0  0  0  0  0  0  0  0  0  0  0  0
  -14.9570    0.0260  -22.3190 H   0  0  0  0  0  0  0  0  0  0  0  0
  -15.2770   -1.3280  -24.5240 H   0  0  0  0  0  0  0  0  0  0  0  0
  -12.5430   -3.4520  -20.6500 H   0  0  0  0  0  0  0  0  0  0  0  0
  -12.9800   -4.5740  -21.9630 H   0  0  0  0  0  0  0  0  0  0  0  0
  -10.9090   -4.6100  -23.2130 C   0  0  0  0  0  0  0  0  0  0  0  0
  -11.8190   -5.3000  -23.6300 O   0  0  0  0  0  0  0  0  0  0  0  0
   -9.5310   -4.7140  -23.7760 C   0  0  0  0  0  0  0  0  0  0  0  0
   -9.3230   -5.6890  -24.7450 C   0  0  0  0  0  0  0  0  0  0  0  0
   -8.0880   -5.8650  -25.3300 C   0  0  0  0  0  0  0  0  0  0  0  0
   -7.0510   -5.0370  -24.9170 C   0  0  0  0  0  0  0  0  0  0  0  0
   -5.8440   -5.1990  -25.4850 F   0  0  0  0  0  0  0  0  0  0  0  0
   -7.2240   -4.0590  -23.9530 C   0  0  0  0  0  0  0  0  0  0  0  0
   -8.4950   -3.8740  -23.3740 C   0  0  0  0  0  0  0  0  0  0  0  0
   -6.3540   -3.4840  -23.6490 H   0  0  0  0  0  0  0  0  0  0  0  0
   -7.9220   -6.6280  -26.0800 H   0  0  0  0  0  0  0  0  0  0  0  0
  -10.1680   -6.3090  -25.0120 H   0  0  0  0  0  0  0  0  0  0  0  0
   -9.6430   -3.8900  -20.7370 H   0  0  0  0  0  0  0  0  0  0  0  0
  -10.3010   -2.2770  -20.8990 H   0  0  0  0  0  0  0  0  0  0  0  0
   -7.9000    0.4890  -22.2970 H   0  0  0  0  0  0  0  0  0  0  0  0
   -9.1130   -0.1040  -21.1610 H   0  0  0  0  0  0  0  0  0  0  0  0
   -8.2800   -1.3170  -23.8340 H   0  0  0  0  0  0  0  0  0  0  0  0
  -11.0350   -0.9280  -22.5140 H   0  0  0  0  0  0  0  0  0  0  0  0
  -10.3910   -0.0060  -23.8700 H   0  0  0  0  0  0  0  0  0  0  0  0
  -10.7650   -1.7380  -24.0590 H   0  0  0  0  0  0  0  0  0  0  0  0
  1  2  1  0  0  0  0
  1 53  1  0  0  0  0
  1 54  1  0  0  0  0
  1 55  1  0  0  0  0
  2  3  1  0  0  0  0
  2 23  1  0  0  0  0
  2 52  1  0  0  0  0
  3  4  1  0  0  0  0
  3 50  1  0  0  0  0
  3 51  1  0  0  0  0
  4  5  1  0  0  0  0
  4 21  1  0  0  0  0
  5  6  2  0  0  0  0
  5 14  1  0  0  0  0
  6  7  1  0  0  0  0
  6 20  1  0  0  0  0
  7  8  2  0  0  0  0
  8  9  1  0  0  0  0
  8 19  1  0  0  0  0
  9 10  1  0  0  0  0
  9 14  2  0  0  0  0
 10 11  2  0  0  0  0
 10 18  1  0  0  0  0
 11 12  1  0  0  0  0
 11 17  1  0  0  0  0
 12 13  2  0  0  0  0
 12 16  1  0  0  0  0
 13 14  1  0  0  0  0
 13 15  1  0  0  0  0
 21 22  2  0  0  0  0
 21 23  1  0  0  0  0
 23 24  1  0  0  0  0
 23 44  1  0  0  0  0
 24 25  1  0  0  0  0
 24 48  1  0  0  0  0
 24 49  1  0  0  0  0
 25 26  1  0  0  0  0
 25 36  1  0  0  0  0
 26 27  1  0  0  0  0
 26 34  1  0  0  0  0
 26 35  1  0  0  0  0
 27 28  1  0  0  0  0
 27 31  2  0  0  0  0
 28 29  2  0  0  0  0
 29 30  1  0  0  0  0
 29 33  1  0  0  0  0
 30 31  1  0  0  0  0
 30 32  1  0  0  0  0
 36 37  2  0  0  0  0
 36 38  1  0  0  0  0
 38 39  2  0  0  0  0
 38 44  1  0  0  0  0
 39 40  1  0  0  0  0
 39 47  1  0  0  0  0
 40 41  2  0  0  0  0
 40 46  1  0  0  0  0
 41 42  1  0  0  0  0
 41 43  1  0  0  0  0
 43 44  2  0  0  0  0
 43 45  1  0  0  0  0
M  END
$$$$
mol65_score_26.1354
  PyMOL2.5          3D                             0

 55 60  0  0  1  0  0  0  0  0999 V2000
  -10.4050   -1.0390  -23.3540 C   0  0  0  0  0  0  0  0  0  0  0  0
   -8.9750   -1.4050  -22.9830 C   0  0  1  0  0  0  0  0  0  0  0  0
   -8.3850   -0.4920  -21.8970 C   0  0  0  0  0  0  0  0  0  0  0  0
   -7.4030   -1.3440  -21.2470 N   0  0  0  0  0  0  0  0  0  0  0  0
   -6.5990   -0.8670  -20.1900 C   0  0  0  0  0  0  0  0  0  0  0  0
   -6.8990   -1.1650  -18.8870 C   0  0  0  0  0  0  0  0  0  0  0  0
   -6.2350   -0.6430  -17.8240 N   0  0  0  0  0  0  0  0  0  0  0  0
   -5.2390    0.1730  -18.0690 C   0  0  0  0  0  0  0  0  0  0  0  0
   -4.8030    0.5330  -19.3770 C   0  0  0  0  0  0  0  0  0  0  0  0
   -3.6900    1.3830  -19.6050 C   0  0  0  0  0  0  0  0  0  0  0  0
   -3.3300    1.7200  -20.8810 C   0  0  0  0  0  0  0  0  0  0  0  0
   -4.0580    1.2220  -21.9860 C   0  0  0  0  0  0  0  0  0  0  0  0
   -5.1130    0.3670  -21.7940 C   0  0  0  0  0  0  0  0  0  0  0  0
   -5.5130    0.0110  -20.4800 C   0  0  0  0  0  0  0  0  0  0  0  0
   -5.6420   -0.0580  -22.6420 H   0  0  0  0  0  0  0  0  0  0  0  0
   -3.7640    1.4990  -22.9940 H   0  0  0  0  0  0  0  0  0  0  0  0
   -2.4800    2.3720  -21.0590 H   0  0  0  0  0  0  0  0  0  0  0  0
   -3.1400    1.7620  -18.7470 H   0  0  0  0  0  0  0  0  0  0  0  0
   -4.7140    0.5930  -17.2090 H   0  0  0  0  0  0  0  0  0  0  0  0
   -7.7150   -1.8450  -18.6500 H   0  0  0  0  0  0  0  0  0  0  0  0
   -7.6240   -2.6910  -21.4500 C   0  0  0  0  0  0  0  0  0  0  0  0
   -6.9770   -3.5830  -20.9410 O   0  0  0  0  0  0  0  0  0  0  0  0
   -8.7990   -2.8600  -22.4190 C   0  0  1  0  0  0  0  0  0  0  0  0
  -10.0250   -3.3210  -21.5850 C   0  0  0  0  0  0  0  0  0  0  0  0
  -11.1320   -3.7610  -22.4090 N   0  0  0  0  0  0  0  0  0  0  0  0
  -12.5050   -3.6600  -21.9430 C   0  0  0  0  0  0  0  0  0  0  0  0
  -13.3280   -2.5420  -22.4950 C   0  0  0  0  0  0  0  0  0  0  0  0
  -14.0340   -2.5440  -23.6410 C   0  0  0  0  0  0  0  0  0  0  0  0
  -14.7580   -1.3930  -23.7070 O   0  0  0  0  0  0  0  0  0  0  0  0
  -14.4610   -0.7510  -22.5610 C   0  0  0  0  0  0  0  0  0  0  0  0
  -13.6290   -1.3780  -21.7930 N   0  0  0  0  0  0  0  0  0  0  0  0
  -14.9480    0.2040  -22.3970 H   0  0  0  0  0  0  0  0  0  0  0  0
  -14.1480   -3.2470  -24.4500 H   0  0  0  0  0  0  0  0  0  0  0  0
  -12.5240   -3.5840  -20.8580 H   0  0  0  0  0  0  0  0  0  0  0  0
  -12.9880   -4.5910  -22.2460 H   0  0  0  0  0  0  0  0  0  0  0  0
  -10.9270   -4.5030  -23.5380 C   0  0  0  0  0  0  0  0  0  0  0  0
  -11.8650   -4.9670  -24.1690 O   0  0  0  0  0  0  0  0  0  0  0  0
   -9.5140   -4.7040  -23.9750 C   0  0  0  0  0  0  0  0  0  0  0  0
   -9.2520   -5.7060  -24.9120 C   0  0  0  0  0  0  0  0  0  0  0  0
   -7.9710   -5.9000  -25.4010 C   0  0  0  0  0  0  0  0  0  0  0  0
   -6.9670   -5.0480  -24.9470 C   0  0  0  0  0  0  0  0  0  0  0  0
   -5.7220   -5.1960  -25.4300 F   0  0  0  0  0  0  0  0  0  0  0  0
   -7.1880   -4.0800  -23.9840 C   0  0  0  0  0  0  0  0  0  0  0  0
   -8.4850   -3.9000  -23.4770 C   0  0  0  0  0  0  0  0  0  0  0  0
   -6.3440   -3.5190  -23.5880 H   0  0  0  0  0  0  0  0  0  0  0  0
   -7.7300   -6.6960  -26.1020 H   0  0  0  0  0  0  0  0  0  0  0  0
  -10.0710   -6.3440  -25.2350 H   0  0  0  0  0  0  0  0  0  0  0  0
  -10.3830   -2.4910  -20.9740 H   0  0  0  0  0  0  0  0  0  0  0  0
   -9.6990   -4.1110  -20.9010 H   0  0  0  0  0  0  0  0  0  0  0  0
   -9.1590   -0.1580  -21.1860 H   0  0  0  0  0  0  0  0  0  0  0  0
   -7.9230    0.4160  -22.2990 H   0  0  0  0  0  0  0  0  0  0  0  0
   -8.3290   -1.3400  -23.8700 H   0  0  0  0  0  0  0  0  0  0  0  0
  -10.4720   -0.0690  -23.8490 H   0  0  0  0  0  0  0  0  0  0  0  0
  -10.8330   -1.7990  -24.0140 H   0  0  0  0  0  0  0  0  0  0  0  0
  -11.0280   -0.9940  -22.4560 H   0  0  0  0  0  0  0  0  0  0  0  0
  1  2  1  0  0  0  0
  1 53  1  0  0  0  0
  1 54  1  0  0  0  0
  1 55  1  0  0  0  0
  2  3  1  0  0  0  0
  2 23  1  0  0  0  0
  2 52  1  0  0  0  0
  3  4  1  0  0  0  0
  3 50  1  0  0  0  0
  3 51  1  0  0  0  0
  4  5  1  0  0  0  0
  4 21  1  0  0  0  0
  5  6  2  0  0  0  0
  5 14  1  0  0  0  0
  6  7  1  0  0  0  0
  6 20  1  0  0  0  0
  7  8  2  0  0  0  0
  8  9  1  0  0  0  0
  8 19  1  0  0  0  0
  9 10  1  0  0  0  0
  9 14  2  0  0  0  0
 10 11  2  0  0  0  0
 10 18  1  0  0  0  0
 11 12  1  0  0  0  0
 11 17  1  0  0  0  0
 12 13  2  0  0  0  0
 12 16  1  0  0  0  0
 13 14  1  0  0  0  0
 13 15  1  0  0  0  0
 21 22  2  0  0  0  0
 21 23  1  0  0  0  0
 23 24  1  0  0  0  0
 23 44  1  0  0  0  0
 24 25  1  0  0  0  0
 24 48  1  0  0  0  0
 24 49  1  0  0  0  0
 25 26  1  0  0  0  0
 25 36  1  0  0  0  0
 26 27  1  0  0  0  0
 26 34  1  0  0  0  0
 26 35  1  0  0  0  0
 27 28  2  0  0  0  0
 27 31  1  0  0  0  0
 28 29  1  0  0  0  0
 28 33  1  0  0  0  0
 29 30  1  0  0  0  0
 30 31  2  0  0  0  0
 30 32  1  0  0  0  0
 36 37  2  0  0  0  0
 36 38  1  0  0  0  0
 38 39  2  0  0  0  0
 38 44  1  0  0  0  0
 39 40  1  0  0  0  0
 39 47  1  0  0  0  0
 40 41  2  0  0  0  0
 40 46  1  0  0  0  0
 41 42  1  0  0  0  0
 41 43  1  0  0  0  0
 43 44  2  0  0  0  0
 43 45  1  0  0  0  0
M  END
$$$$
mol66_score_20.5652
  PyMOL2.5          3D                             0

 44 47  0  0  1  0  0  0  0  0999 V2000
   -9.7970    1.4340  -24.4040 C   0  0  0  0  0  0  0  0  0  0  0  0
  -10.9340    0.5040  -24.0000 C   0  0  0  0  0  0  0  0  0  0  0  0
  -10.7720   -0.1460  -22.6190 C   0  0  1  0  0  0  0  0  0  0  0  0
  -11.9920   -0.9470  -22.2910 C   0  0  0  0  0  0  0  0  0  0  0  0
  -13.3040   -0.4070  -22.1330 C   0  0  0  0  0  0  0  0  0  0  0  0
  -14.2000   -1.3530  -21.7520 C   0  0  0  0  0  0  0  0  0  0  0  0
  -13.4860   -2.9110  -21.6700 S   0  0  0  0  0  0  0  0  0  0  0  0
  -11.9360   -2.2900  -22.0890 C   0  0  0  0  0  0  0  0  0  0  0  0
  -10.7100   -3.1410  -22.2550 C   0  0  0  0  0  0  0  0  0  0  0  0
   -9.6610   -2.3190  -23.0060 C   0  0  0  0  0  0  0  0  0  0  0  0
   -9.5680   -0.9620  -22.4700 N   0  0  0  0  0  0  0  0  0  0  0  0
   -8.5370   -0.4260  -21.7350 C   0  0  0  0  0  0  0  0  0  0  0  0
   -8.4950    0.7540  -21.4340 O   0  0  0  0  0  0  0  0  0  0  0  0
   -7.4610   -1.4040  -21.2630 C   0  0  0  0  0  0  0  0  0  0  0  0
   -6.6070   -0.8130  -20.1820 C   0  0  0  0  0  0  0  0  0  0  0  0
   -6.9040   -1.0620  -18.8700 C   0  0  0  0  0  0  0  0  0  0  0  0
   -6.2240   -0.5760  -17.8000 N   0  0  0  0  0  0  0  0  0  0  0  0
   -5.2020    0.2060  -18.0600 C   0  0  0  0  0  0  0  0  0  0  0  0
   -4.7830    0.5590  -19.3700 C   0  0  0  0  0  0  0  0  0  0  0  0
   -3.6510    1.3780  -19.5980 C   0  0  0  0  0  0  0  0  0  0  0  0
   -3.2730    1.7060  -20.8730 C   0  0  0  0  0  0  0  0  0  0  0  0
   -4.0230    1.2330  -21.9730 C   0  0  0  0  0  0  0  0  0  0  0  0
   -5.1110    0.4210  -21.7810 C   0  0  0  0  0  0  0  0  0  0  0  0
   -5.5120    0.0500  -20.4700 C   0  0  0  0  0  0  0  0  0  0  0  0
   -5.6680    0.0520  -22.6390 H   0  0  0  0  0  0  0  0  0  0  0  0
   -3.7110    1.4900  -22.9830 H   0  0  0  0  0  0  0  0  0  0  0  0
   -2.4010    2.3280  -21.0500 H   0  0  0  0  0  0  0  0  0  0  0  0
   -3.0870    1.7350  -18.7410 H   0  0  0  0  0  0  0  0  0  0  0  0
   -4.6380    0.6000  -17.2130 H   0  0  0  0  0  0  0  0  0  0  0  0
   -7.7500   -1.7020  -18.6180 H   0  0  0  0  0  0  0  0  0  0  0  0
   -7.9870   -2.2860  -20.8730 H   0  0  0  0  0  0  0  0  0  0  0  0
   -6.8760   -1.7340  -22.1330 H   0  0  0  0  0  0  0  0  0  0  0  0
   -8.6790   -2.8010  -23.0490 H   0  0  0  0  0  0  0  0  0  0  0  0
  -10.0060   -2.2330  -24.0430 H   0  0  0  0  0  0  0  0  0  0  0  0
  -10.3300   -3.4700  -21.2820 H   0  0  0  0  0  0  0  0  0  0  0  0
  -10.9360   -4.0640  -22.8010 H   0  0  0  0  0  0  0  0  0  0  0  0
  -15.2290   -1.2020  -21.4720 H   0  0  0  0  0  0  0  0  0  0  0  0
  -13.5690    0.6340  -22.2910 H   0  0  0  0  0  0  0  0  0  0  0  0
  -10.6510    0.6780  -21.9070 H   0  0  0  0  0  0  0  0  0  0  0  0
  -11.8710    1.0700  -23.9430 H   0  0  0  0  0  0  0  0  0  0  0  0
  -11.1080   -0.2660  -24.7580 H   0  0  0  0  0  0  0  0  0  0  0  0
   -8.8610    0.8890  -24.5770 H   0  0  0  0  0  0  0  0  0  0  0  0
  -10.0430    1.9810  -25.3240 H   0  0  0  0  0  0  0  0  0  0  0  0
   -9.6290    2.1670  -23.6080 H   0  0  0  0  0  0  0  0  0  0  0  0
  1  2  1  0  0  0  0
  1 42  1  0  0  0  0
  1 43  1  0  0  0  0
  1 44  1  0  0  0  0
  2  3  1  0  0  0  0
  2 40  1  0  0  0  0
  2 41  1  0  0  0  0
  3  4  1  0  0  0  0
  3 11  1  0  0  0  0
  3 39  1  0  0  0  0
  4  5  1  0  0  0  0
  4  8  2  0  0  0  0
  5  6  2  0  0  0  0
  5 38  1  0  0  0  0
  6  7  1  0  0  0  0
  6 37  1  0  0  0  0
  7  8  1  0  0  0  0
  8  9  1  0  0  0  0
  9 10  1  0  0  0  0
  9 35  1  0  0  0  0
  9 36  1  0  0  0  0
 10 11  1  0  0  0  0
 10 33  1  0  0  0  0
 10 34  1  0  0  0  0
 11 12  1  0  0  0  0
 12 13  2  0  0  0  0
 12 14  1  0  0  0  0
 14 15  1  0  0  0  0
 14 31  1  0  0  0  0
 14 32  1  0  0  0  0
 15 16  2  0  0  0  0
 15 24  1  0  0  0  0
 16 17  1  0  0  0  0
 16 30  1  0  0  0  0
 17 18  2  0  0  0  0
 18 19  1  0  0  0  0
 18 29  1  0  0  0  0
 19 20  1  0  0  0  0
 19 24  2  0  0  0  0
 20 21  2  0  0  0  0
 20 28  1  0  0  0  0
 21 22  1  0  0  0  0
 21 27  1  0  0  0  0
 22 23  2  0  0  0  0
 22 26  1  0  0  0  0
 23 24  1  0  0  0  0
 23 25  1  0  0  0  0
M  END
$$$$
mol67_score_26.5931
  PyMOL2.5          3D                             0

 58 63  0  0  1  0  0  0  0  0999 V2000
  -15.0590    0.1690  -22.9470 C   0  0  0  0  0  0  0  0  0  0  0  0
  -14.4530   -1.1570  -22.7850 C   0  0  0  0  0  0  0  0  0  0  0  0
  -13.7160   -1.6330  -21.6940 C   0  0  0  0  0  0  0  0  0  0  0  0
  -13.3050   -2.8550  -22.1180 C   0  0  0  0  0  0  0  0  0  0  0  0
  -12.3940   -3.8960  -21.5950 C   0  0  0  0  0  0  0  0  0  0  0  0
  -11.0560   -3.8770  -22.1660 N   0  0  0  0  0  0  0  0  0  0  0  0
   -9.9390   -3.3610  -21.4150 C   0  0  0  0  0  0  0  0  0  0  0  0
   -8.7540   -2.9300  -22.2950 C   0  0  2  0  0  0  0  0  0  0  0  0
   -7.5530   -2.7080  -21.3700 C   0  0  0  0  0  0  0  0  0  0  0  0
   -6.8640   -3.5550  -20.8350 O   0  0  0  0  0  0  0  0  0  0  0  0
   -7.3540   -1.3560  -21.2310 N   0  0  0  0  0  0  0  0  0  0  0  0
   -6.5610   -0.8500  -20.1810 C   0  0  0  0  0  0  0  0  0  0  0  0
   -6.8840   -1.0910  -18.8690 C   0  0  0  0  0  0  0  0  0  0  0  0
   -6.2080   -0.5640  -17.8200 N   0  0  0  0  0  0  0  0  0  0  0  0
   -5.1820    0.2050  -18.0850 C   0  0  0  0  0  0  0  0  0  0  0  0
   -4.7310    0.5080  -19.4010 C   0  0  0  0  0  0  0  0  0  0  0  0
   -3.6080    1.3360  -19.6410 C   0  0  0  0  0  0  0  0  0  0  0  0
   -3.2160    1.6180  -20.9200 C   0  0  0  0  0  0  0  0  0  0  0  0
   -3.9270    1.0880  -22.0210 C   0  0  0  0  0  0  0  0  0  0  0  0
   -5.0130    0.2730  -21.8170 C   0  0  0  0  0  0  0  0  0  0  0  0
   -5.4410   -0.0260  -20.4950 C   0  0  0  0  0  0  0  0  0  0  0  0
   -5.5500   -0.1490  -22.6620 H   0  0  0  0  0  0  0  0  0  0  0  0
   -3.6150    1.3350  -23.0320 H   0  0  0  0  0  0  0  0  0  0  0  0
   -2.3620    2.2640  -21.0980 H   0  0  0  0  0  0  0  0  0  0  0  0
   -3.0910    1.7550  -18.7830 H   0  0  0  0  0  0  0  0  0  0  0  0
   -4.6430    0.6360  -17.2390 H   0  0  0  0  0  0  0  0  0  0  0  0
   -7.7270   -1.7320  -18.6150 H   0  0  0  0  0  0  0  0  0  0  0  0
   -8.3550   -0.5480  -21.9030 C   0  0  0  0  0  0  0  0  0  0  0  0
   -8.9840   -1.5130  -22.9170 C   0  0  2  0  0  0  0  0  0  0  0  0
  -10.4370   -1.1790  -23.2380 C   0  0  0  0  0  0  0  0  0  0  0  0
  -10.5270   -0.2100  -23.7320 H   0  0  0  0  0  0  0  0  0  0  0  0
  -11.0310   -1.1370  -22.3200 H   0  0  0  0  0  0  0  0  0  0  0  0
  -10.8810   -1.9480  -23.8770 H   0  0  0  0  0  0  0  0  0  0  0  0
   -8.3960   -1.4810  -23.8450 H   0  0  0  0  0  0  0  0  0  0  0  0
   -7.9010    0.3250  -22.3810 H   0  0  0  0  0  0  0  0  0  0  0  0
   -9.1060   -0.1860  -21.1850 H   0  0  0  0  0  0  0  0  0  0  0  0
   -8.4700   -3.9900  -23.3230 C   0  0  0  0  0  0  0  0  0  0  0  0
   -7.2100   -4.0870  -23.9170 C   0  0  0  0  0  0  0  0  0  0  0  0
   -7.0120   -5.0150  -24.9170 C   0  0  0  0  0  0  0  0  0  0  0  0
   -5.8130   -5.0760  -25.5140 F   0  0  0  0  0  0  0  0  0  0  0  0
   -8.0080   -5.8800  -25.3540 C   0  0  0  0  0  0  0  0  0  0  0  0
   -9.2520   -5.7790  -24.7650 C   0  0  0  0  0  0  0  0  0  0  0  0
   -9.4800   -4.8380  -23.7630 C   0  0  0  0  0  0  0  0  0  0  0  0
  -10.8510   -4.7280  -23.2100 C   0  0  0  0  0  0  0  0  0  0  0  0
  -11.7730   -5.3650  -23.6830 O   0  0  0  0  0  0  0  0  0  0  0  0
  -10.0750   -6.4190  -25.0590 H   0  0  0  0  0  0  0  0  0  0  0  0
   -7.7900   -6.5870  -26.1460 H   0  0  0  0  0  0  0  0  0  0  0  0
   -6.3970   -3.4440  -23.6030 H   0  0  0  0  0  0  0  0  0  0  0  0
   -9.5920   -4.1200  -20.7260 H   0  0  0  0  0  0  0  0  0  0  0  0
  -10.2650   -2.5000  -20.8320 H   0  0  0  0  0  0  0  0  0  0  0  0
  -12.8290   -4.8100  -21.9670 H   0  0  0  0  0  0  0  0  0  0  0  0
  -12.3800   -3.8750  -20.5090 H   0  0  0  0  0  0  0  0  0  0  0  0
  -13.8950   -3.1490  -23.2860 O   0  0  0  0  0  0  0  0  0  0  0  0
  -14.6100   -2.0610  -23.7230 N   0  0  0  0  0  0  0  0  0  0  0  0
  -13.6970   -1.1210  -20.7570 H   0  0  0  0  0  0  0  0  0  0  0  0
  -15.6980   -0.0910  -23.7590 H   0  0  0  0  0  0  0  0  0  0  0  0
  -14.3240    0.9310  -23.2310 H   0  0  0  0  0  0  0  0  0  0  0  0
  -15.6350    0.4920  -22.0780 H   0  0  0  0  0  0  0  0  0  0  0  0
  1  2  1  0  0  0  0
  1 56  1  0  0  0  0
  1 57  1  0  0  0  0
  1 58  1  0  0  0  0
  2  3  1  0  0  0  0
  2 54  2  0  0  0  0
  3  4  2  0  0  0  0
  3 55  1  0  0  0  0
  4  5  1  0  0  0  0
  4 53  1  0  0  0  0
  5  6  1  0  0  0  0
  5 51  1  0  0  0  0
  5 52  1  0  0  0  0
  6  7  1  0  0  0  0
  6 44  1  0  0  0  0
  7  8  1  0  0  0  0
  7 49  1  0  0  0  0
  7 50  1  0  0  0  0
  8  9  1  0  0  0  0
  8 29  1  0  0  0  0
  8 37  1  0  0  0  0
  9 10  2  0  0  0  0
  9 11  1  0  0  0  0
 11 12  1  0  0  0  0
 11 28  1  0  0  0  0
 12 13  2  0  0  0  0
 12 21  1  0  0  0  0
 13 14  1  0  0  0  0
 13 27  1  0  0  0  0
 14 15  2  0  0  0  0
 15 16  1  0  0  0  0
 15 26  1  0  0  0  0
 16 17  1  0  0  0  0
 16 21  2  0  0  0  0
 17 18  2  0  0  0  0
 17 25  1  0  0  0  0
 18 19  1  0  0  0  0
 18 24  1  0  0  0  0
 19 20  2  0  0  0  0
 19 23  1  0  0  0  0
 20 21  1  0  0  0  0
 20 22  1  0  0  0  0
 28 29  1  0  0  0  0
 28 35  1  0  0  0  0
 28 36  1  0  0  0  0
 29 30  1  0  0  0  0
 29 34  1  0  0  0  0
 30 31  1  0  0  0  0
 30 32  1  0  0  0  0
 30 33  1  0  0  0  0
 37 38  2  0  0  0  0
 37 43  1  0  0  0  0
 38 39  1  0  0  0  0
 38 48  1  0  0  0  0
 39 40  1  0  0  0  0
 39 41  2  0  0  0  0
 41 42  1  0  0  0  0
 41 47  1  0  0  0  0
 42 43  2  0  0  0  0
 42 46  1  0  0  0  0
 43 44  1  0  0  0  0
 44 45  2  0  0  0  0
 53 54  1  0  0  0  0
M  END
$$$$
mol68_score_22.3390
  PyMOL2.5          3D                             0

 65 70  0  0  1  0  0  0  0  0999 V2000
   -5.8720   -3.3950  -20.9240 O   0  0  0  0  0  0  0  0  0  0  0  0
   -6.8330   -2.9640  -21.5370 C   0  0  0  0  0  0  0  0  0  0  0  0
   -7.4020   -1.5730  -21.2220 C   0  0  0  0  0  0  0  0  0  0  0  0
   -6.6070   -0.8620  -20.1620 C   0  0  0  0  0  0  0  0  0  0  0  0
   -6.9060   -1.0580  -18.8380 C   0  0  0  0  0  0  0  0  0  0  0  0
   -6.2300   -0.5360  -17.7830 N   0  0  0  0  0  0  0  0  0  0  0  0
   -5.1990    0.2260  -18.0620 C   0  0  0  0  0  0  0  0  0  0  0  0
   -4.7620    0.5200  -19.3840 C   0  0  0  0  0  0  0  0  0  0  0  0
   -3.6350    1.3480  -19.6230 C   0  0  0  0  0  0  0  0  0  0  0  0
   -3.2310    1.6210  -20.9020 C   0  0  0  0  0  0  0  0  0  0  0  0
   -3.9440    1.0760  -21.9940 C   0  0  0  0  0  0  0  0  0  0  0  0
   -5.0440    0.2790  -21.7850 C   0  0  0  0  0  0  0  0  0  0  0  0
   -5.4840   -0.0310  -20.4700 C   0  0  0  0  0  0  0  0  0  0  0  0
   -5.5770   -0.1090  -22.6490 H   0  0  0  0  0  0  0  0  0  0  0  0
   -3.6170    1.2900  -23.0090 H   0  0  0  0  0  0  0  0  0  0  0  0
   -2.3720    2.2600  -21.0820 H   0  0  0  0  0  0  0  0  0  0  0  0
   -3.1050    1.7590  -18.7670 H   0  0  0  0  0  0  0  0  0  0  0  0
   -4.6440    0.6470  -17.2230 H   0  0  0  0  0  0  0  0  0  0  0  0
   -7.7540   -1.6900  -18.5700 H   0  0  0  0  0  0  0  0  0  0  0  0
   -8.4420   -1.6940  -20.8940 H   0  0  0  0  0  0  0  0  0  0  0  0
   -7.4200   -1.0030  -22.1580 H   0  0  0  0  0  0  0  0  0  0  0  0
   -7.3770   -3.6780  -22.6010 N   0  0  0  0  0  0  0  0  0  0  0  0
   -6.4060   -4.5640  -23.2600 C   0  0  0  0  0  0  0  0  0  0  0  0
   -5.7980   -3.9470  -24.5130 C   0  0  0  0  0  0  0  0  0  0  0  0
   -5.7550   -4.6130  -25.7370 C   0  0  0  0  0  0  0  0  0  0  0  0
   -5.1790   -4.0110  -26.8530 C   0  0  0  0  0  0  0  0  0  0  0  0
   -4.6130   -2.7460  -26.7650 C   0  0  0  0  0  0  0  0  0  0  0  0
   -4.6510   -2.0920  -25.5410 C   0  0  0  0  0  0  0  0  0  0  0  0
   -3.9240   -0.5080  -25.4040 Cl  0  0  0  0  0  0  0  0  0  0  0  0
   -5.2520   -2.6640  -24.4290 C   0  0  0  0  0  0  0  0  0  0  0  0
   -5.2800   -2.1060  -23.4960 H   0  0  0  0  0  0  0  0  0  0  0  0
   -4.1540   -2.2690  -27.6250 H   0  0  0  0  0  0  0  0  0  0  0  0
   -5.1890   -4.5300  -27.8070 H   0  0  0  0  0  0  0  0  0  0  0  0
   -6.1810   -5.6120  -25.8330 H   0  0  0  0  0  0  0  0  0  0  0  0
   -5.6270   -4.7190  -22.5100 H   0  0  0  0  0  0  0  0  0  0  0  0
   -6.8670   -5.5340  -23.4650 H   0  0  0  0  0  0  0  0  0  0  0  0
   -8.7790   -3.6570  -23.0410 C   0  0  2  0  0  0  0  0  0  0  0  0
   -9.0600   -4.6600  -24.1930 C   0  0  0  0  0  0  0  0  0  0  0  0
  -10.4340   -4.2490  -24.7480 C   0  0  0  0  0  0  0  0  0  0  0  0
  -10.7680   -3.0190  -23.9030 C   0  0  2  0  0  0  0  0  0  0  0  0
   -9.3990   -2.3810  -23.6400 C   0  0  0  0  0  0  0  0  0  0  0  0
   -9.4720   -1.5430  -22.9390 H   0  0  0  0  0  0  0  0  0  0  0  0
   -8.8990   -2.0580  -24.5590 H   0  0  0  0  0  0  0  0  0  0  0  0
  -11.1660   -3.5750  -22.5310 N   0  3  2  0  0  0  0  0  0  0  0  0
  -11.9910   -2.6810  -21.6510 C   0  0  0  0  0  0  0  0  0  0  0  0
  -13.4460   -2.5560  -22.0990 C   0  0  0  0  0  0  0  0  0  0  0  0
  -14.4130   -1.8320  -21.1170 C   0  0  0  0  0  0  0  0  0  0  0  0
  -15.0940   -3.0530  -20.8060 O   0  0  0  0  0  0  0  0  0  0  0  0
  -14.2630   -3.8040  -21.6940 C   0  0  0  0  0  0  0  0  0  0  0  0
  -13.6700   -4.5470  -21.1340 H   0  0  0  0  0  0  0  0  0  0  0  0
  -14.8330   -4.3050  -22.4850 H   0  0  0  0  0  0  0  0  0  0  0  0
  -14.0000   -1.3870  -20.2050 H   0  0  0  0  0  0  0  0  0  0  0  0
  -15.1050   -1.0960  -21.5480 H   0  0  0  0  0  0  0  0  0  0  0  0
  -13.5150   -2.2350  -23.1460 H   0  0  0  0  0  0  0  0  0  0  0  0
  -11.4970   -1.7120  -21.5040 H   0  0  0  0  0  0  0  0  0  0  0  0
  -12.0500   -3.1560  -20.6740 H   0  0  0  0  0  0  0  0  0  0  0  0
   -9.8200   -3.9840  -21.9390 C   0  0  0  0  0  0  0  0  0  0  0  0
   -9.8270   -5.0440  -21.6900 H   0  0  0  0  0  0  0  0  0  0  0  0
   -9.6470   -3.4160  -21.0250 H   0  0  0  0  0  0  0  0  0  0  0  0
  -11.7520   -4.4200  -22.6580 H   0  0  0  0  0  0  0  0  0  0  0  0
  -11.5550   -2.3820  -24.2920 H   0  0  0  0  0  0  0  0  0  0  0  0
  -11.1770   -5.0390  -24.6040 H   0  0  0  0  0  0  0  0  0  0  0  0
  -10.3890   -4.0040  -25.8130 H   0  0  0  0  0  0  0  0  0  0  0  0
   -8.3000   -4.5450  -24.9670 H   0  0  0  0  0  0  0  0  0  0  0  0
   -9.0430   -5.6930  -23.8320 H   0  0  0  0  0  0  0  0  0  0  0  0
  1  2  2  0  0  0  0
  2  3  1  0  0  0  0
  2 22  1  0  0  0  0
  3  4  1  0  0  0  0
  3 20  1  0  0  0  0
  3 21  1  0  0  0  0
  4  5  2  0  0  0  0
  4 13  1  0  0  0  0
  5  6  1  0  0  0  0
  5 19  1  0  0  0  0
  6  7  2  0  0  0  0
  7  8  1  0  0  0  0
  7 18  1  0  0  0  0
  8  9  1  0  0  0  0
  8 13  2  0  0  0  0
  9 10  2  0  0  0  0
  9 17  1  0  0  0  0
 10 11  1  0  0  0  0
 10 16  1  0  0  0  0
 11 12  2  0  0  0  0
 11 15  1  0  0  0  0
 12 13  1  0  0  0  0
 12 14  1  0  0  0  0
 22 23  1  0  0  0  0
 23 24  1  0  0  0  0
 23 35  1  0  0  0  0
 23 36  1  0  0  0  0
 24 25  2  0  0  0  0
 24 30  1  0  0  0  0
 25 26  1  0  0  0  0
 25 34  1  0  0  0  0
 26 27  2  0  0  0  0
 26 33  1  0  0  0  0
 27 28  1  0  0  0  0
 27 32  1  0  0  0  0
 28 29  1  0  0  0  0
 28 30  2  0  0  0  0
 30 31  1  0  0  0  0
 22 37  1  0  0  0  0
 37 38  1  0  0  0  0
 37 41  1  0  0  0  0
 37 57  1  0  0  0  0
 38 39  1  0  0  0  0
 38 64  1  0  0  0  0
 38 65  1  0  0  0  0
 39 40  1  0  0  0  0
 39 62  1  0  0  0  0
 39 63  1  0  0  0  0
 40 41  1  0  0  0  0
 40 44  1  0  0  0  0
 40 61  1  0  0  0  0
 41 42  1  0  0  0  0
 41 43  1  0  0  0  0
 44 45  1  0  0  0  0
 44 57  1  0  0  0  0
 44 60  1  0  0  0  0
 45 46  1  0  0  0  0
 45 55  1  0  0  0  0
 45 56  1  0  0  0  0
 46 47  1  0  0  0  0
 46 49  1  0  0  0  0
 46 54  1  0  0  0  0
 47 48  1  0  0  0  0
 47 52  1  0  0  0  0
 47 53  1  0  0  0  0
 48 49  1  0  0  0  0
 49 50  1  0  0  0  0
 49 51  1  0  0  0  0
 57 58  1  0  0  0  0
 57 59  1  0  0  0  0
M  END
$$$$
mol69_score_25.0304
  PyMOL2.5          3D                             0

 63 67  0  0  1  0  0  0  0  0999 V2000
  -15.3950   -5.2380  -24.9500 C   0  0  0  0  0  0  0  0  0  0  0  0
  -14.5770   -4.5360  -24.1700 C   0  0  0  0  0  0  0  0  0  0  0  0
  -13.5340   -3.6260  -24.7270 C   0  0  0  0  0  0  0  0  0  0  0  0
  -13.4970   -3.3570  -25.9130 O   0  0  0  0  0  0  0  0  0  0  0  0
  -12.6110   -3.1270  -23.7990 N   0  0  0  0  0  0  0  0  0  0  0  0
  -13.0650   -2.7450  -22.4650 C   0  0  0  0  0  0  0  0  0  0  0  0
  -12.8770   -1.2480  -22.3360 C   0  0  0  0  0  0  0  0  0  0  0  0
  -11.3850   -0.9800  -22.3400 C   0  0  0  0  0  0  0  0  0  0  0  0
  -10.6780   -1.6420  -23.5040 C   0  0  0  0  0  0  0  0  0  0  0  0
  -11.3230   -2.6850  -24.2020 C   0  0  0  0  0  0  0  0  0  0  0  0
  -10.6860   -3.3060  -25.2810 C   0  0  0  0  0  0  0  0  0  0  0  0
   -9.4420   -2.8700  -25.7020 C   0  0  0  0  0  0  0  0  0  0  0  0
   -8.7900   -1.8400  -25.0330 C   0  0  0  0  0  0  0  0  0  0  0  0
   -9.3960   -1.2740  -23.9180 C   0  0  0  0  0  0  0  0  0  0  0  0
   -8.5760   -0.1660  -23.1970 N   0  3  1  0  0  0  0  0  0  0  0  0
   -8.9260    1.2760  -23.6200 C   0  0  0  0  0  0  0  0  0  0  0  0
   -7.7470    2.2100  -23.4380 C   0  0  0  0  0  0  0  0  0  0  0  0
   -7.6900    3.0380  -22.3170 C   0  0  0  0  0  0  0  0  0  0  0  0
   -6.7350    4.0340  -22.2300 C   0  0  0  0  0  0  0  0  0  0  0  0
   -5.7230    4.1430  -23.1760 C   0  0  0  0  0  0  0  0  0  0  0  0
   -5.7060    3.2270  -24.2240 C   0  0  0  0  0  0  0  0  0  0  0  0
   -4.3630    3.2260  -25.3440 Cl  0  0  0  0  0  0  0  0  0  0  0  0
   -6.7230    2.2940  -24.3840 C   0  0  0  0  0  0  0  0  0  0  0  0
   -6.7270    1.6480  -25.2580 H   0  0  0  0  0  0  0  0  0  0  0  0
   -4.9690    4.9160  -23.0910 H   0  0  0  0  0  0  0  0  0  0  0  0
   -6.8030    4.7510  -21.4250 H   0  0  0  0  0  0  0  0  0  0  0  0
   -8.4090    2.8840  -21.5220 H   0  0  0  0  0  0  0  0  0  0  0  0
   -9.2740    1.2530  -24.6540 H   0  0  0  0  0  0  0  0  0  0  0  0
   -9.7490    1.5950  -22.9820 H   0  0  0  0  0  0  0  0  0  0  0  0
   -8.4420   -0.2710  -21.7290 C   0  0  0  0  0  0  0  0  0  0  0  0
   -9.0960    0.4270  -20.9950 O   0  0  0  0  0  0  0  0  0  0  0  0
   -7.4850   -1.3530  -21.2390 C   0  0  0  0  0  0  0  0  0  0  0  0
   -6.5830   -0.8120  -20.1610 C   0  0  0  0  0  0  0  0  0  0  0  0
   -6.8540   -1.0500  -18.8410 C   0  0  0  0  0  0  0  0  0  0  0  0
   -6.1510   -0.5440  -17.7940 N   0  0  0  0  0  0  0  0  0  0  0  0
   -5.1410    0.2370  -18.0760 C   0  0  0  0  0  0  0  0  0  0  0  0
   -4.7270    0.5580  -19.3970 C   0  0  0  0  0  0  0  0  0  0  0  0
   -3.6090    1.3940  -19.6430 C   0  0  0  0  0  0  0  0  0  0  0  0
   -3.2190    1.6710  -20.9230 C   0  0  0  0  0  0  0  0  0  0  0  0
   -3.9360    1.1250  -22.0140 C   0  0  0  0  0  0  0  0  0  0  0  0
   -5.0370    0.3320  -21.8010 C   0  0  0  0  0  0  0  0  0  0  0  0
   -5.4670    0.0220  -20.4810 C   0  0  0  0  0  0  0  0  0  0  0  0
   -5.5690   -0.0650  -22.6610 H   0  0  0  0  0  0  0  0  0  0  0  0
   -3.5980    1.3280  -23.0300 H   0  0  0  0  0  0  0  0  0  0  0  0
   -2.3630    2.3140  -21.1090 H   0  0  0  0  0  0  0  0  0  0  0  0
   -3.0720    1.8060  -18.7920 H   0  0  0  0  0  0  0  0  0  0  0  0
   -4.5750    0.6460  -17.2360 H   0  0  0  0  0  0  0  0  0  0  0  0
   -7.6920   -1.6910  -18.5630 H   0  0  0  0  0  0  0  0  0  0  0  0
   -6.9050   -1.7600  -22.0750 H   0  0  0  0  0  0  0  0  0  0  0  0
   -8.1060   -2.1730  -20.8510 H   0  0  0  0  0  0  0  0  0  0  0  0
   -7.6230   -0.3350  -23.5720 H   0  0  0  0  0  0  0  0  0  0  0  0
   -7.8300   -1.4830  -25.4010 H   0  0  0  0  0  0  0  0  0  0  0  0
   -8.9810   -3.3260  -26.5730 H   0  0  0  0  0  0  0  0  0  0  0  0
  -11.1780   -4.1210  -25.8020 H   0  0  0  0  0  0  0  0  0  0  0  0
  -11.1950    0.0950  -22.3300 H   0  0  0  0  0  0  0  0  0  0  0  0
  -10.9550   -1.3820  -21.4130 H   0  0  0  0  0  0  0  0  0  0  0  0
  -13.3500   -0.7590  -23.1970 H   0  0  0  0  0  0  0  0  0  0  0  0
  -13.3500   -0.8590  -21.4280 H   0  0  0  0  0  0  0  0  0  0  0  0
  -12.4930   -3.2970  -21.7050 H   0  0  0  0  0  0  0  0  0  0  0  0
  -14.1170   -3.0000  -22.3480 H   0  0  0  0  0  0  0  0  0  0  0  0
  -14.5690   -4.6940  -23.1000 H   0  0  0  0  0  0  0  0  0  0  0  0
  -16.1440   -5.9120  -24.5360 H   0  0  0  0  0  0  0  0  0  0  0  0
  -15.3230   -5.1570  -26.0320 H   0  0  0  0  0  0  0  0  0  0  0  0
  1  2  2  0  0  0  0
  1 62  1  0  0  0  0
  1 63  1  0  0  0  0
  2  3  1  0  0  0  0
  2 61  1  0  0  0  0
  3  4  2  0  0  0  0
  3  5  1  0  0  0  0
  5  6  1  0  0  0  0
  5 10  1  0  0  0  0
  6  7  1  0  0  0  0
  6 59  1  0  0  0  0
  6 60  1  0  0  0  0
  7  8  1  0  0  0  0
  7 57  1  0  0  0  0
  7 58  1  0  0  0  0
  8  9  1  0  0  0  0
  8 55  1  0  0  0  0
  8 56  1  0  0  0  0
  9 10  2  0  0  0  0
  9 14  1  0  0  0  0
 10 11  1  0  0  0  0
 11 12  2  0  0  0  0
 11 54  1  0  0  0  0
 12 13  1  0  0  0  0
 12 53  1  0  0  0  0
 13 14  2  0  0  0  0
 13 52  1  0  0  0  0
 14 15  1  0  0  0  0
 15 16  1  0  0  0  0
 15 30  1  0  0  0  0
 15 51  1  0  0  0  0
 16 17  1  0  0  0  0
 16 28  1  0  0  0  0
 16 29  1  0  0  0  0
 17 18  2  0  0  0  0
 17 23  1  0  0  0  0
 18 19  1  0  0  0  0
 18 27  1  0  0  0  0
 19 20  2  0  0  0  0
 19 26  1  0  0  0  0
 20 21  1  0  0  0  0
 20 25  1  0  0  0  0
 21 22  1  0  0  0  0
 21 23  2  0  0  0  0
 23 24  1  0  0  0  0
 30 31  2  0  0  0  0
 30 32  1  0  0  0  0
 32 33  1  0  0  0  0
 32 49  1  0  0  0  0
 32 50  1  0  0  0  0
 33 34  2  0  0  0  0
 33 42  1  0  0  0  0
 34 35  1  0  0  0  0
 34 48  1  0  0  0  0
 35 36  2  0  0  0  0
 36 37  1  0  0  0  0
 36 47  1  0  0  0  0
 37 38  1  0  0  0  0
 37 42  2  0  0  0  0
 38 39  2  0  0  0  0
 38 46  1  0  0  0  0
 39 40  1  0  0  0  0
 39 45  1  0  0  0  0
 40 41  2  0  0  0  0
 40 44  1  0  0  0  0
 41 42  1  0  0  0  0
 41 43  1  0  0  0  0
M  END
$$$$
mol70_score_19.6861
  PyMOL2.5          3D                             0

 52 54  0  0  0  0  0  0  0  0999 V2000
  -14.7770   -3.8010  -23.6510 C   0  0  0  0  0  0  0  0  0  0  0  0
  -14.0270   -3.0250  -22.5550 C   0  0  0  0  0  0  0  0  0  0  0  0
  -14.3550   -3.5010  -21.1250 C   0  0  0  0  0  0  0  0  0  0  0  0
  -15.3690   -3.2310  -20.8130 H   0  0  0  0  0  0  0  0  0  0  0  0
  -14.2550   -4.5860  -20.9990 H   0  0  0  0  0  0  0  0  0  0  0  0
  -13.6790   -3.0400  -20.3930 H   0  0  0  0  0  0  0  0  0  0  0  0
  -12.5200   -3.1370  -22.8430 C   0  0  0  0  0  0  0  0  0  0  0  0
  -11.9280   -1.9860  -23.7060 C   0  0  0  0  0  0  0  0  0  0  0  0
  -12.7570   -1.6210  -24.9370 C   0  0  0  0  0  0  0  0  0  0  0  0
  -12.7930   -2.4060  -25.7010 H   0  0  0  0  0  0  0  0  0  0  0  0
  -13.7810   -1.3410  -24.6570 H   0  0  0  0  0  0  0  0  0  0  0  0
  -12.2870   -0.7340  -25.3760 H   0  0  0  0  0  0  0  0  0  0  0  0
  -11.8790   -0.7050  -22.8300 C   0  0  0  0  0  0  0  0  0  0  0  0
  -10.5580    0.0450  -22.8990 C   0  0  0  0  0  0  0  0  0  0  0  0
   -9.4600   -0.8550  -22.5560 N   0  0  0  0  0  0  0  0  0  0  0  0
   -8.5160   -0.4160  -21.6820 C   0  0  0  0  0  0  0  0  0  0  0  0
   -8.5150    0.7220  -21.2440 O   0  0  0  0  0  0  0  0  0  0  0  0
   -7.4610   -1.4430  -21.2430 C   0  0  0  0  0  0  0  0  0  0  0  0
   -6.6050   -0.8690  -20.1640 C   0  0  0  0  0  0  0  0  0  0  0  0
   -6.9410   -1.0680  -18.8510 C   0  0  0  0  0  0  0  0  0  0  0  0
   -6.2780   -0.5520  -17.7840 N   0  0  0  0  0  0  0  0  0  0  0  0
   -5.2400    0.2080  -18.0530 C   0  0  0  0  0  0  0  0  0  0  0  0
   -4.7930    0.5180  -19.3670 C   0  0  0  0  0  0  0  0  0  0  0  0
   -3.6620    1.3430  -19.6070 C   0  0  0  0  0  0  0  0  0  0  0  0
   -3.2640    1.6240  -20.8890 C   0  0  0  0  0  0  0  0  0  0  0  0
   -3.9880    1.1110  -21.9870 C   0  0  0  0  0  0  0  0  0  0  0  0
   -5.0940    0.3190  -21.7830 C   0  0  0  0  0  0  0  0  0  0  0  0
   -5.5060   -0.0140  -20.4640 C   0  0  0  0  0  0  0  0  0  0  0  0
   -5.6620   -0.0430  -22.6350 H   0  0  0  0  0  0  0  0  0  0  0  0
   -3.6660    1.3440  -22.9990 H   0  0  0  0  0  0  0  0  0  0  0  0
   -2.3890    2.2440  -21.0680 H   0  0  0  0  0  0  0  0  0  0  0  0
   -3.1260    1.7440  -18.7520 H   0  0  0  0  0  0  0  0  0  0  0  0
   -4.6960    0.6170  -17.2010 H   0  0  0  0  0  0  0  0  0  0  0  0
   -7.8090   -1.6810  -18.6080 H   0  0  0  0  0  0  0  0  0  0  0  0
   -7.9670   -2.3440  -20.8680 H   0  0  0  0  0  0  0  0  0  0  0  0
   -6.8570   -1.7550  -22.1060 H   0  0  0  0  0  0  0  0  0  0  0  0
   -9.5350   -2.2480  -22.9910 C   0  0  0  0  0  0  0  0  0  0  0  0
  -10.5010   -2.3620  -24.1560 C   0  0  0  0  0  0  0  0  0  0  0  0
  -10.4890   -3.3750  -24.5780 H   0  0  0  0  0  0  0  0  0  0  0  0
  -10.1640   -1.6840  -24.9510 H   0  0  0  0  0  0  0  0  0  0  0  0
   -8.5390   -2.5990  -23.2760 H   0  0  0  0  0  0  0  0  0  0  0  0
   -9.8860   -2.8960  -22.1750 H   0  0  0  0  0  0  0  0  0  0  0  0
  -10.5500    0.8780  -22.1950 H   0  0  0  0  0  0  0  0  0  0  0  0
  -10.4060    0.4790  -23.8940 H   0  0  0  0  0  0  0  0  0  0  0  0
  -12.7040   -0.0280  -23.0810 H   0  0  0  0  0  0  0  0  0  0  0  0
  -12.0410   -1.0070  -21.8040 H   0  0  0  0  0  0  0  0  0  0  0  0
  -12.3160   -4.1090  -23.3180 H   0  0  0  0  0  0  0  0  0  0  0  0
  -11.9750   -3.1650  -21.8880 H   0  0  0  0  0  0  0  0  0  0  0  0
  -14.3220   -1.9620  -22.5860 H   0  0  0  0  0  0  0  0  0  0  0  0
  -14.4350   -3.5340  -24.6620 H   0  0  0  0  0  0  0  0  0  0  0  0
  -15.8600   -3.6690  -23.5920 H   0  0  0  0  0  0  0  0  0  0  0  0
  -14.5530   -4.8690  -23.5420 H   0  0  0  0  0  0  0  0  0  0  0  0
  1  2  1  0  0  0  0
  1 50  1  0  0  0  0
  1 51  1  0  0  0  0
  1 52  1  0  0  0  0
  2  3  1  0  0  0  0
  2  7  1  0  0  0  0
  2 49  1  0  0  0  0
  3  4  1  0  0  0  0
  3  5  1  0  0  0  0
  3  6  1  0  0  0  0
  7  8  1  0  0  0  0
  7 47  1  0  0  0  0
  7 48  1  0  0  0  0
  8  9  1  0  0  0  0
  8 13  1  0  0  0  0
  8 38  1  0  0  0  0
  9 10  1  0  0  0  0
  9 11  1  0  0  0  0
  9 12  1  0  0  0  0
 13 14  1  0  0  0  0
 13 45  1  0  0  0  0
 13 46  1  0  0  0  0
 14 15  1  0  0  0  0
 14 43  1  0  0  0  0
 14 44  1  0  0  0  0
 15 16  1  0  0  0  0
 15 37  1  0  0  0  0
 16 17  2  0  0  0  0
 16 18  1  0  0  0  0
 18 19  1  0  0  0  0
 18 35  1  0  0  0  0
 18 36  1  0  0  0  0
 19 20  2  0  0  0  0
 19 28  1  0  0  0  0
 20 21  1  0  0  0  0
 20 34  1  0  0  0  0
 21 22  2  0  0  0  0
 22 23  1  0  0  0  0
 22 33  1  0  0  0  0
 23 24  1  0  0  0  0
 23 28  2  0  0  0  0
 24 25  2  0  0  0  0
 24 32  1  0  0  0  0
 25 26  1  0  0  0  0
 25 31  1  0  0  0  0
 26 27  2  0  0  0  0
 26 30  1  0  0  0  0
 27 28  1  0  0  0  0
 27 29  1  0  0  0  0
 37 38  1  0  0  0  0
 37 41  1  0  0  0  0
 37 42  1  0  0  0  0
 38 39  1  0  0  0  0
 38 40  1  0  0  0  0
M  END
$$$$
mol71_score_22.4229
  PyMOL2.5          3D                             0

 50 54  0  0  1  0  0  0  0  0999 V2000
  -10.4330   -1.1590  -23.2590 C   0  0  0  0  0  0  0  0  0  0  0  0
   -8.9810   -1.4920  -22.9290 C   0  0  1  0  0  0  0  0  0  0  0  0
   -8.3570   -0.5320  -21.9080 C   0  0  0  0  0  0  0  0  0  0  0  0
   -7.3580   -1.3410  -21.2340 N   0  0  0  0  0  0  0  0  0  0  0  0
   -6.5630   -0.8460  -20.1830 C   0  0  0  0  0  0  0  0  0  0  0  0
   -6.8840   -1.0950  -18.8740 C   0  0  0  0  0  0  0  0  0  0  0  0
   -6.2090   -0.5690  -17.8230 N   0  0  0  0  0  0  0  0  0  0  0  0
   -5.1850    0.2030  -18.0860 C   0  0  0  0  0  0  0  0  0  0  0  0
   -4.7330    0.5080  -19.4030 C   0  0  0  0  0  0  0  0  0  0  0  0
   -3.6100    1.3350  -19.6430 C   0  0  0  0  0  0  0  0  0  0  0  0
   -3.2190    1.6180  -20.9210 C   0  0  0  0  0  0  0  0  0  0  0  0
   -3.9290    1.0890  -22.0220 C   0  0  0  0  0  0  0  0  0  0  0  0
   -5.0140    0.2730  -21.8190 C   0  0  0  0  0  0  0  0  0  0  0  0
   -5.4440   -0.0250  -20.4980 C   0  0  0  0  0  0  0  0  0  0  0  0
   -5.5490   -0.1510  -22.6650 H   0  0  0  0  0  0  0  0  0  0  0  0
   -3.6180    1.3390  -23.0320 H   0  0  0  0  0  0  0  0  0  0  0  0
   -2.3670    2.2640  -21.0970 H   0  0  0  0  0  0  0  0  0  0  0  0
   -3.0940    1.7530  -18.7830 H   0  0  0  0  0  0  0  0  0  0  0  0
   -4.6470    0.6360  -17.2390 H   0  0  0  0  0  0  0  0  0  0  0  0
   -7.7240   -1.7380  -18.6230 H   0  0  0  0  0  0  0  0  0  0  0  0
   -7.5500   -2.6920  -21.3800 C   0  0  0  0  0  0  0  0  0  0  0  0
   -6.8600   -3.5480  -20.8540 O   0  0  0  0  0  0  0  0  0  0  0  0
   -8.7580   -2.9060  -22.2900 C   0  0  1  0  0  0  0  0  0  0  0  0
   -9.9500   -3.2980  -21.3990 C   0  0  0  0  0  0  0  0  0  0  0  0
  -11.0850   -3.7330  -22.1840 N   0  0  0  0  0  0  0  0  0  0  0  0
  -12.4540   -3.5550  -21.7420 C   0  0  0  0  0  0  0  0  0  0  0  0
  -13.3390   -2.7620  -22.6290 C   0  0  0  0  0  0  0  0  0  0  0  0
  -14.1330   -2.2020  -23.2550 N   0  0  0  0  0  0  0  0  0  0  0  0
  -12.4880   -3.1000  -20.7500 H   0  0  0  0  0  0  0  0  0  0  0  0
  -12.9130   -4.5420  -21.7150 H   0  0  0  0  0  0  0  0  0  0  0  0
  -10.9080   -4.6590  -23.1740 C   0  0  0  0  0  0  0  0  0  0  0  0
  -11.8560   -5.2830  -23.6110 O   0  0  0  0  0  0  0  0  0  0  0  0
   -9.5350   -4.8300  -23.7230 C   0  0  0  0  0  0  0  0  0  0  0  0
   -9.3220   -5.7850  -24.7150 C   0  0  0  0  0  0  0  0  0  0  0  0
   -8.0850   -5.9090  -25.3110 C   0  0  0  0  0  0  0  0  0  0  0  0
   -7.0750   -5.0570  -24.8880 C   0  0  0  0  0  0  0  0  0  0  0  0
   -5.8820   -5.1460  -25.4870 F   0  0  0  0  0  0  0  0  0  0  0  0
   -7.2520   -4.1140  -23.9010 C   0  0  0  0  0  0  0  0  0  0  0  0
   -8.5050   -3.9900  -23.3040 C   0  0  0  0  0  0  0  0  0  0  0  0
   -6.4270   -3.4830  -23.5950 H   0  0  0  0  0  0  0  0  0  0  0  0
   -7.8830   -6.6320  -26.0910 H   0  0  0  0  0  0  0  0  0  0  0  0
  -10.1520   -6.4160  -25.0030 H   0  0  0  0  0  0  0  0  0  0  0  0
   -9.6280   -4.0820  -20.7170 H   0  0  0  0  0  0  0  0  0  0  0  0
  -10.2310   -2.4260  -20.8040 H   0  0  0  0  0  0  0  0  0  0  0  0
   -9.1140   -0.1800  -21.1930 H   0  0  0  0  0  0  0  0  0  0  0  0
   -7.9030    0.3440  -22.3770 H   0  0  0  0  0  0  0  0  0  0  0  0
   -8.3850   -1.4690  -23.8520 H   0  0  0  0  0  0  0  0  0  0  0  0
  -10.5220   -0.1820  -23.7350 H   0  0  0  0  0  0  0  0  0  0  0  0
  -11.0310   -1.1460  -22.3440 H   0  0  0  0  0  0  0  0  0  0  0  0
  -10.8640   -1.9210  -23.9140 H   0  0  0  0  0  0  0  0  0  0  0  0
  1  2  1  0  0  0  0
  1 48  1  0  0  0  0
  1 49  1  0  0  0  0
  1 50  1  0  0  0  0
  2  3  1  0  0  0  0
  2 23  1  0  0  0  0
  2 47  1  0  0  0  0
  3  4  1  0  0  0  0
  3 45  1  0  0  0  0
  3 46  1  0  0  0  0
  4  5  1  0  0  0  0
  4 21  1  0  0  0  0
  5  6  2  0  0  0  0
  5 14  1  0  0  0  0
  6  7  1  0  0  0  0
  6 20  1  0  0  0  0
  7  8  2  0  0  0  0
  8  9  1  0  0  0  0
  8 19  1  0  0  0  0
  9 10  1  0  0  0  0
  9 14  2  0  0  0  0
 10 11  2  0  0  0  0
 10 18  1  0  0  0  0
 11 12  1  0  0  0  0
 11 17  1  0  0  0  0
 12 13  2  0  0  0  0
 12 16  1  0  0  0  0
 13 14  1  0  0  0  0
 13 15  1  0  0  0  0
 21 22  2  0  0  0  0
 21 23  1  0  0  0  0
 23 24  1  0  0  0  0
 23 39  1  0  0  0  0
 24 25  1  0  0  0  0
 24 43  1  0  0  0  0
 24 44  1  0  0  0  0
 25 26  1  0  0  0  0
 25 31  1  0  0  0  0
 26 27  1  0  0  0  0
 26 29  1  0  0  0  0
 26 30  1  0  0  0  0
 27 28  3  0  0  0  0
 31 32  2  0  0  0  0
 31 33  1  0  0  0  0
 33 34  2  0  0  0  0
 33 39  1  0  0  0  0
 34 35  1  0  0  0  0
 34 42  1  0  0  0  0
 35 36  2  0  0  0  0
 35 41  1  0  0  0  0
 36 37  1  0  0  0  0
 36 38  1  0  0  0  0
 38 39  2  0  0  0  0
 38 40  1  0  0  0  0
M  END
$$$$
mol72_score_22.6711
  PyMOL2.5          3D                             0

 41 44  0  0  0  0  0  0  0  0999 V2000
   -8.6840    0.7150  -21.2780 O   0  0  0  0  0  0  0  0  0  0  0  0
   -8.6460   -0.4290  -21.7030 C   0  0  0  0  0  0  0  0  0  0  0  0
   -7.5190   -1.3820  -21.2870 C   0  0  0  0  0  0  0  0  0  0  0  0
   -6.6580   -0.8080  -20.1960 C   0  0  0  0  0  0  0  0  0  0  0  0
   -6.9440   -1.0760  -18.8870 C   0  0  0  0  0  0  0  0  0  0  0  0
   -6.2650   -0.6000  -17.8100 N   0  0  0  0  0  0  0  0  0  0  0  0
   -5.2430    0.1860  -18.0590 C   0  0  0  0  0  0  0  0  0  0  0  0
   -4.8230    0.5550  -19.3650 C   0  0  0  0  0  0  0  0  0  0  0  0
   -3.6890    1.3770  -19.5820 C   0  0  0  0  0  0  0  0  0  0  0  0
   -3.3210    1.7290  -20.8530 C   0  0  0  0  0  0  0  0  0  0  0  0
   -4.0830    1.2850  -21.9550 C   0  0  0  0  0  0  0  0  0  0  0  0
   -5.1770    0.4800  -21.7730 C   0  0  0  0  0  0  0  0  0  0  0  0
   -5.5690    0.0740  -20.4700 C   0  0  0  0  0  0  0  0  0  0  0  0
   -5.7400    0.1350  -22.6350 H   0  0  0  0  0  0  0  0  0  0  0  0
   -3.7790    1.5710  -22.9590 H   0  0  0  0  0  0  0  0  0  0  0  0
   -2.4500    2.3530  -21.0160 H   0  0  0  0  0  0  0  0  0  0  0  0
   -3.1220    1.7190  -18.7190 H   0  0  0  0  0  0  0  0  0  0  0  0
   -4.6890    0.5620  -17.1990 H   0  0  0  0  0  0  0  0  0  0  0  0
   -7.7810   -1.7320  -18.6450 H   0  0  0  0  0  0  0  0  0  0  0  0
   -7.9690   -2.3230  -20.9380 H   0  0  0  0  0  0  0  0  0  0  0  0
   -6.9090   -1.6300  -22.1640 H   0  0  0  0  0  0  0  0  0  0  0  0
   -9.6140   -0.9310  -22.5380 N   0  0  0  0  0  0  0  0  0  0  0  0
   -9.5730   -2.2410  -23.2000 C   0  0  0  0  0  0  0  0  0  0  0  0
  -10.3120   -3.3370  -22.4170 C   0  0  0  0  0  0  0  0  0  0  0  0
  -11.5430   -2.7600  -21.6910 C   0  0  0  0  0  0  0  0  0  0  0  0
  -12.4300   -1.8260  -22.4910 C   0  0  0  0  0  0  0  0  0  0  0  0
  -14.1400   -2.0880  -22.6650 S   0  0  0  0  0  0  0  0  0  0  0  0
  -14.3540   -0.5660  -23.4430 C   0  0  0  0  0  0  0  0  0  0  0  0
  -13.1810    0.1090  -23.5590 C   0  0  0  0  0  0  0  0  0  0  0  0
  -12.0620   -0.6110  -23.0070 C   0  0  0  0  0  0  0  0  0  0  0  0
  -10.6730   -0.0060  -22.9320 C   0  0  0  0  0  0  0  0  0  0  0  0
  -10.4060    0.4600  -23.8960 H   0  0  0  0  0  0  0  0  0  0  0  0
  -10.6820    0.8140  -22.2030 H   0  0  0  0  0  0  0  0  0  0  0  0
  -13.1410    1.0970  -24.0140 H   0  0  0  0  0  0  0  0  0  0  0  0
  -15.3390   -0.1950  -23.6930 H   0  0  0  0  0  0  0  0  0  0  0  0
  -12.1390   -3.5410  -21.2100 H   0  0  0  0  0  0  0  0  0  0  0  0
  -11.1250   -2.1310  -20.8960 H   0  0  0  0  0  0  0  0  0  0  0  0
   -9.6560   -3.7890  -21.6610 H   0  0  0  0  0  0  0  0  0  0  0  0
  -10.5700   -4.1550  -23.1020 H   0  0  0  0  0  0  0  0  0  0  0  0
  -10.1030   -2.1310  -24.1530 H   0  0  0  0  0  0  0  0  0  0  0  0
   -8.5390   -2.5450  -23.4190 H   0  0  0  0  0  0  0  0  0  0  0  0
  1  2  2  0  0  0  0
  2  3  1  0  0  0  0
  2 22  1  0  0  0  0
  3  4  1  0  0  0  0
  3 20  1  0  0  0  0
  3 21  1  0  0  0  0
  4  5  2  0  0  0  0
  4 13  1  0  0  0  0
  5  6  1  0  0  0  0
  5 19  1  0  0  0  0
  6  7  2  0  0  0  0
  7  8  1  0  0  0  0
  7 18  1  0  0  0  0
  8  9  1  0  0  0  0
  8 13  2  0  0  0  0
  9 10  2  0  0  0  0
  9 17  1  0  0  0  0
 10 11  1  0  0  0  0
 10 16  1  0  0  0  0
 11 12  2  0  0  0  0
 11 15  1  0  0  0  0
 12 13  1  0  0  0  0
 12 14  1  0  0  0  0
 22 23  1  0  0  0  0
 22 31  1  0  0  0  0
 23 24  1  0  0  0  0
 23 40  1  0  0  0  0
 23 41  1  0  0  0  0
 24 25  1  0  0  0  0
 24 38  1  0  0  0  0
 24 39  1  0  0  0  0
 25 26  1  0  0  0  0
 25 36  1  0  0  0  0
 25 37  1  0  0  0  0
 26 27  1  0  0  0  0
 26 30  2  0  0  0  0
 27 28  1  0  0  0  0
 28 29  2  0  0  0  0
 28 35  1  0  0  0  0
 29 30  1  0  0  0  0
 29 34  1  0  0  0  0
 30 31  1  0  0  0  0
 31 32  1  0  0  0  0
 31 33  1  0  0  0  0
M  END
$$$$
mol73_score_16.9020
  PyMOL2.5          3D                             0

 50 53  0  0  1  0  0  0  0  0999 V2000
   -5.6010   -3.0290  -21.5760 O   0  0  0  0  0  0  0  0  0  0  0  0
   -6.7580   -2.7530  -21.8600 C   0  0  0  0  0  0  0  0  0  0  0  0
   -7.4150   -1.4790  -21.2690 C   0  0  0  0  0  0  0  0  0  0  0  0
   -6.5810   -0.8310  -20.1860 C   0  0  0  0  0  0  0  0  0  0  0  0
   -6.8730   -1.0450  -18.8650 C   0  0  0  0  0  0  0  0  0  0  0  0
   -6.1830   -0.5420  -17.8060 N   0  0  0  0  0  0  0  0  0  0  0  0
   -5.1570    0.2230  -18.0700 C   0  0  0  0  0  0  0  0  0  0  0  0
   -4.7180    0.5290  -19.3840 C   0  0  0  0  0  0  0  0  0  0  0  0
   -3.5880    1.3520  -19.6240 C   0  0  0  0  0  0  0  0  0  0  0  0
   -3.1870    1.6310  -20.9000 C   0  0  0  0  0  0  0  0  0  0  0  0
   -3.9050    1.0920  -21.9930 C   0  0  0  0  0  0  0  0  0  0  0  0
   -4.9990    0.2890  -21.7860 C   0  0  0  0  0  0  0  0  0  0  0  0
   -5.4450   -0.0150  -20.4770 C   0  0  0  0  0  0  0  0  0  0  0  0
   -5.5270   -0.1330  -22.6360 H   0  0  0  0  0  0  0  0  0  0  0  0
   -3.5800    1.3170  -23.0030 H   0  0  0  0  0  0  0  0  0  0  0  0
   -2.3280    2.2730  -21.0850 H   0  0  0  0  0  0  0  0  0  0  0  0
   -3.0580    1.7740  -18.7720 H   0  0  0  0  0  0  0  0  0  0  0  0
   -4.6030    0.6270  -17.2170 H   0  0  0  0  0  0  0  0  0  0  0  0
   -7.7180   -1.6680  -18.5830 H   0  0  0  0  0  0  0  0  0  0  0  0
   -7.6150   -0.7500  -22.0660 H   0  0  0  0  0  0  0  0  0  0  0  0
   -8.3950   -1.7470  -20.8490 H   0  0  0  0  0  0  0  0  0  0  0  0
   -7.5200   -3.5820  -22.6610 N   0  0  0  0  0  0  0  0  0  0  0  0
   -8.6630   -3.1240  -23.4510 C   0  0  0  0  0  0  0  0  0  0  0  0
   -9.7330   -4.1990  -23.5640 C   0  0  0  0  0  0  0  0  0  0  0  0
   -9.1580   -5.4960  -24.1060 C   0  0  0  0  0  0  0  0  0  0  0  0
   -7.9840   -5.9340  -23.2420 C   0  0  0  0  0  0  0  0  0  0  0  0
   -6.9120   -4.8510  -23.1010 C   0  0  1  0  0  0  0  0  0  0  0  0
   -6.0420   -4.6960  -24.3690 C   0  0  0  0  0  0  0  0  0  0  0  0
   -5.2090   -5.9200  -24.6880 C   0  0  0  0  0  0  0  0  0  0  0  0
   -4.0480   -6.1890  -23.9580 C   0  0  0  0  0  0  0  0  0  0  0  0
   -3.2850   -7.3210  -24.2200 C   0  0  0  0  0  0  0  0  0  0  0  0
   -3.6710   -8.2120  -25.2170 C   0  0  0  0  0  0  0  0  0  0  0  0
   -4.8280   -7.9610  -25.9500 C   0  0  0  0  0  0  0  0  0  0  0  0
   -5.5860   -6.8250  -25.6830 C   0  0  0  0  0  0  0  0  0  0  0  0
   -6.4940   -6.6400  -26.2530 H   0  0  0  0  0  0  0  0  0  0  0  0
   -5.1410   -8.6460  -26.7320 H   0  0  0  0  0  0  0  0  0  0  0  0
   -3.0710   -9.0920  -25.4260 H   0  0  0  0  0  0  0  0  0  0  0  0
   -2.3830   -7.5090  -23.6440 H   0  0  0  0  0  0  0  0  0  0  0  0
   -3.7420   -5.4960  -23.1770 H   0  0  0  0  0  0  0  0  0  0  0  0
   -6.6840   -4.4570  -25.2240 H   0  0  0  0  0  0  0  0  0  0  0  0
   -5.3800   -3.8380  -24.2150 H   0  0  0  0  0  0  0  0  0  0  0  0
   -6.2390   -5.1510  -22.2980 H   0  0  0  0  0  0  0  0  0  0  0  0
   -8.3500   -6.1920  -22.2440 H   0  0  0  0  0  0  0  0  0  0  0  0
   -7.5380   -6.8520  -23.6380 H   0  0  0  0  0  0  0  0  0  0  0  0
   -9.9260   -6.2710  -24.1410 H   0  0  0  0  0  0  0  0  0  0  0  0
   -8.8350   -5.3710  -25.1470 H   0  0  0  0  0  0  0  0  0  0  0  0
  -10.1650   -4.3760  -22.5770 H   0  0  0  0  0  0  0  0  0  0  0  0
  -10.5500   -3.8470  -24.1990 H   0  0  0  0  0  0  0  0  0  0  0  0
   -9.0840   -2.2320  -22.9920 H   0  0  0  0  0  0  0  0  0  0  0  0
   -8.3550   -2.8300  -24.4650 H   0  0  0  0  0  0  0  0  0  0  0  0
  1  2  2  0  0  0  0
  2  3  1  0  0  0  0
  2 22  1  0  0  0  0
  3  4  1  0  0  0  0
  3 20  1  0  0  0  0
  3 21  1  0  0  0  0
  4  5  2  0  0  0  0
  4 13  1  0  0  0  0
  5  6  1  0  0  0  0
  5 19  1  0  0  0  0
  6  7  2  0  0  0  0
  7  8  1  0  0  0  0
  7 18  1  0  0  0  0
  8  9  1  0  0  0  0
  8 13  2  0  0  0  0
  9 10  2  0  0  0  0
  9 17  1  0  0  0  0
 10 11  1  0  0  0  0
 10 16  1  0  0  0  0
 11 12  2  0  0  0  0
 11 15  1  0  0  0  0
 12 13  1  0  0  0  0
 12 14  1  0  0  0  0
 22 23  1  0  0  0  0
 22 27  1  0  0  0  0
 23 24  1  0  0  0  0
 23 49  1  0  0  0  0
 23 50  1  0  0  0  0
 24 25  1  0  0  0  0
 24 47  1  0  0  0  0
 24 48  1  0  0  0  0
 25 26  1  0  0  0  0
 25 45  1  0  0  0  0
 25 46  1  0  0  0  0
 26 27  1  0  0  0  0
 26 43  1  0  0  0  0
 26 44  1  0  0  0  0
 27 28  1  0  0  0  0
 27 42  1  0  0  0  0
 28 29  1  0  0  0  0
 28 40  1  0  0  0  0
 28 41  1  0  0  0  0
 29 30  2  0  0  0  0
 29 34  1  0  0  0  0
 30 31  1  0  0  0  0
 30 39  1  0  0  0  0
 31 32  2  0  0  0  0
 31 38  1  0  0  0  0
 32 33  1  0  0  0  0
 32 37  1  0  0  0  0
 33 34  2  0  0  0  0
 33 36  1  0  0  0  0
 34 35  1  0  0  0  0
M  END
$$$$
mol74_score_17.3910
  PyMOL2.5          3D                             0

 43 47  0  0  1  0  0  0  0  0999 V2000
   -9.0730    0.1680  -21.0790 O   0  0  0  0  0  0  0  0  0  0  0  0
   -8.6610   -0.9000  -21.4750 C   0  0  0  0  0  0  0  0  0  0  0  0
   -9.2810   -1.8060  -22.2880 N   0  0  0  0  0  0  0  0  0  0  0  0
   -8.5950   -3.0780  -22.3430 C   0  0  1  0  0  0  0  0  0  0  0  0
   -9.3980   -4.3260  -21.9130 C   0  0  0  0  0  0  0  0  0  0  0  0
   -9.3120   -4.8930  -23.3580 C   0  0  2  0  0  0  0  0  0  0  0  0
   -8.6390   -6.2350  -23.3800 C   0  0  0  0  0  0  0  0  0  0  0  0
   -7.3760   -6.4200  -22.7950 C   0  0  0  0  0  0  0  0  0  0  0  0
   -6.7780   -7.6690  -22.6920 C   0  0  0  0  0  0  0  0  0  0  0  0
   -7.4640   -8.7780  -23.1750 C   0  0  0  0  0  0  0  0  0  0  0  0
   -8.6960   -8.6200  -23.7910 C   0  0  0  0  0  0  0  0  0  0  0  0
   -9.2570   -7.3590  -23.9120 C   0  0  0  0  0  0  0  0  0  0  0  0
  -10.7580   -7.2030  -24.7680 Cl  0  0  0  0  0  0  0  0  0  0  0  0
   -9.1980   -9.4790  -24.2160 H   0  0  0  0  0  0  0  0  0  0  0  0
   -7.0670   -9.7820  -23.0750 H   0  0  0  0  0  0  0  0  0  0  0  0
   -5.7960   -7.7580  -22.2270 H   0  0  0  0  0  0  0  0  0  0  0  0
   -6.8380   -5.5610  -22.3990 H   0  0  0  0  0  0  0  0  0  0  0  0
   -8.3930   -3.6990  -23.7500 C   0  0  0  0  0  0  0  0  0  0  0  0
   -8.7640   -3.0410  -24.5420 H   0  0  0  0  0  0  0  0  0  0  0  0
   -7.3640   -4.0130  -23.9630 H   0  0  0  0  0  0  0  0  0  0  0  0
  -10.2640   -4.8780  -23.8920 H   0  0  0  0  0  0  0  0  0  0  0  0
   -8.7960   -4.9720  -21.2910 H   0  0  0  0  0  0  0  0  0  0  0  0
  -10.3720   -4.1730  -21.4340 H   0  0  0  0  0  0  0  0  0  0  0  0
   -7.3220   -2.7890  -21.5590 C   0  0  0  0  0  0  0  0  0  0  0  0
   -6.4220   -3.5530  -21.2960 O   0  0  0  0  0  0  0  0  0  0  0  0
   -7.4030   -1.4480  -21.1720 N   0  0  0  0  0  0  0  0  0  0  0  0
   -6.5980   -0.8680  -20.1590 C   0  0  0  0  0  0  0  0  0  0  0  0
   -6.9110   -1.0980  -18.8460 C   0  0  0  0  0  0  0  0  0  0  0  0
   -6.2240   -0.5850  -17.7970 N   0  0  0  0  0  0  0  0  0  0  0  0
   -5.2100    0.1970  -18.0700 C   0  0  0  0  0  0  0  0  0  0  0  0
   -4.8000    0.5330  -19.3900 C   0  0  0  0  0  0  0  0  0  0  0  0
   -3.6770    1.3560  -19.6200 C   0  0  0  0  0  0  0  0  0  0  0  0
   -3.3080    1.6790  -20.8930 C   0  0  0  0  0  0  0  0  0  0  0  0
   -4.0500    1.2000  -21.9910 C   0  0  0  0  0  0  0  0  0  0  0  0
   -5.1300    0.3730  -21.8020 C   0  0  0  0  0  0  0  0  0  0  0  0
   -5.5180    0.0070  -20.4840 C   0  0  0  0  0  0  0  0  0  0  0  0
   -5.6660   -0.0140  -22.6630 H   0  0  0  0  0  0  0  0  0  0  0  0
   -3.7390    1.4650  -22.9960 H   0  0  0  0  0  0  0  0  0  0  0  0
   -2.4390    2.3010  -21.0690 H   0  0  0  0  0  0  0  0  0  0  0  0
   -3.1250    1.7150  -18.7610 H   0  0  0  0  0  0  0  0  0  0  0  0
   -4.6390    0.6020  -17.2310 H   0  0  0  0  0  0  0  0  0  0  0  0
   -7.7580   -1.7300  -18.5870 H   0  0  0  0  0  0  0  0  0  0  0  0
  -10.2740   -1.7110  -22.4500 H   0  0  0  0  0  0  0  0  0  0  0  0
  1  2  2  0  0  0  0
  2  3  1  0  0  0  0
  2 26  1  0  0  0  0
  3  4  1  0  0  0  0
  3 43  1  0  0  0  0
  4  5  1  0  0  0  0
  4 18  1  0  0  0  0
  4 24  1  0  0  0  0
  5  6  1  0  0  0  0
  5 22  1  0  0  0  0
  5 23  1  0  0  0  0
  6  7  1  0  0  0  0
  6 18  1  0  0  0  0
  6 21  1  0  0  0  0
  7  8  2  0  0  0  0
  7 12  1  0  0  0  0
  8  9  1  0  0  0  0
  8 17  1  0  0  0  0
  9 10  2  0  0  0  0
  9 16  1  0  0  0  0
 10 11  1  0  0  0  0
 10 15  1  0  0  0  0
 11 12  2  0  0  0  0
 11 14  1  0  0  0  0
 12 13  1  0  0  0  0
 18 19  1  0  0  0  0
 18 20  1  0  0  0  0
 24 25  2  0  0  0  0
 24 26  1  0  0  0  0
 26 27  1  0  0  0  0
 27 28  2  0  0  0  0
 27 36  1  0  0  0  0
 28 29  1  0  0  0  0
 28 42  1  0  0  0  0
 29 30  2  0  0  0  0
 30 31  1  0  0  0  0
 30 41  1  0  0  0  0
 31 32  1  0  0  0  0
 31 36  2  0  0  0  0
 32 33  2  0  0  0  0
 32 40  1  0  0  0  0
 33 34  1  0  0  0  0
 33 39  1  0  0  0  0
 34 35  2  0  0  0  0
 34 38  1  0  0  0  0
 35 36  1  0  0  0  0
 35 37  1  0  0  0  0
M  END
$$$$
mol75_score_28.0415
  PyMOL2.5          3D                             0

 66 71  0  0  1  0  0  0  0  0999 V2000
   -7.7530    3.0340  -22.2560 C   0  0  0  0  0  0  0  0  0  0  0  0
   -8.7830    2.5690  -23.1490 N   0  0  0  0  0  0  0  0  0  0  0  0
   -8.4020    1.8990  -24.2600 C   0  0  0  0  0  0  0  0  0  0  0  0
   -7.2300    1.7610  -24.5800 O   0  0  0  0  0  0  0  0  0  0  0  0
   -9.5410    1.2530  -25.0400 C   0  0  0  0  0  0  0  0  0  0  0  0
  -10.0690    0.1110  -24.3190 N   0  0  0  0  0  0  0  0  0  0  0  0
   -9.1590   -1.0020  -24.1130 C   0  0  0  0  0  0  0  0  0  0  0  0
   -9.3740   -1.7400  -22.7570 C   0  0  2  0  0  0  0  0  0  0  0  0
   -8.8000   -0.8390  -21.6250 C   0  0  0  0  0  0  0  0  0  0  0  0
   -9.3410    0.1400  -21.1430 O   0  0  0  0  0  0  0  0  0  0  0  0
   -7.5480   -1.3010  -21.2850 N   0  0  0  0  0  0  0  0  0  0  0  0
   -6.7490   -0.7440  -20.2510 C   0  0  0  0  0  0  0  0  0  0  0  0
   -7.0320   -1.0270  -18.9390 C   0  0  0  0  0  0  0  0  0  0  0  0
   -6.2900   -0.5980  -17.8890 N   0  0  0  0  0  0  0  0  0  0  0  0
   -5.2290    0.1250  -18.1440 C   0  0  0  0  0  0  0  0  0  0  0  0
   -4.8040    0.4800  -19.4560 C   0  0  0  0  0  0  0  0  0  0  0  0
   -3.6470    1.2740  -19.6860 C   0  0  0  0  0  0  0  0  0  0  0  0
   -3.2740    1.6030  -20.9620 C   0  0  0  0  0  0  0  0  0  0  0  0
   -4.0400    1.1610  -22.0630 C   0  0  0  0  0  0  0  0  0  0  0  0
   -5.1680    0.3960  -21.8630 C   0  0  0  0  0  0  0  0  0  0  0  0
   -5.5800    0.0290  -20.5520 C   0  0  0  0  0  0  0  0  0  0  0  0
   -5.7860    0.1310  -22.7160 H   0  0  0  0  0  0  0  0  0  0  0  0
   -3.7540    1.4420  -23.0720 H   0  0  0  0  0  0  0  0  0  0  0  0
   -2.4000    2.2240  -21.1380 H   0  0  0  0  0  0  0  0  0  0  0  0
   -3.0770    1.6270  -18.8300 H   0  0  0  0  0  0  0  0  0  0  0  0
   -4.6460    0.4740  -17.2900 H   0  0  0  0  0  0  0  0  0  0  0  0
   -7.8930   -1.6460  -18.6950 H   0  0  0  0  0  0  0  0  0  0  0  0
   -7.1250   -2.4630  -22.0410 C   0  0  0  0  0  0  0  0  0  0  0  0
   -8.4420   -2.9880  -22.6370 C   0  0  2  0  0  0  0  0  0  0  0  0
   -8.2010   -3.7800  -23.9170 C   0  0  0  0  0  0  0  0  0  0  0  0
   -9.4510   -4.2800  -24.4290 N   0  0  0  0  0  0  0  0  0  0  0  0
   -9.5670   -4.9270  -25.6250 C   0  0  0  0  0  0  0  0  0  0  0  0
   -8.4280   -5.1810  -26.4250 C   0  0  0  0  0  0  0  0  0  0  0  0
   -8.5030   -5.8010  -27.5890 N   0  0  0  0  0  0  0  0  0  0  0  0
   -9.7220   -6.1990  -27.9730 C   0  0  0  0  0  0  0  0  0  0  0  0
  -10.8360   -5.9580  -27.1840 C   0  0  0  0  0  0  0  0  0  0  0  0
  -10.7810   -5.3160  -26.0140 N   0  0  0  0  0  0  0  0  0  0  0  0
  -11.8170   -6.2950  -27.5040 H   0  0  0  0  0  0  0  0  0  0  0  0
   -9.7980   -6.7150  -28.9260 H   0  0  0  0  0  0  0  0  0  0  0  0
   -7.4450   -4.8570  -26.0900 H   0  0  0  0  0  0  0  0  0  0  0  0
  -10.3220   -3.9830  -24.0100 H   0  0  0  0  0  0  0  0  0  0  0  0
   -7.5190   -4.6210  -23.7360 H   0  0  0  0  0  0  0  0  0  0  0  0
   -7.6900   -3.1360  -24.6550 H   0  0  0  0  0  0  0  0  0  0  0  0
   -8.8900   -3.6620  -21.8980 H   0  0  0  0  0  0  0  0  0  0  0  0
   -6.3930   -2.1950  -22.8220 H   0  0  0  0  0  0  0  0  0  0  0  0
   -6.6350   -3.1870  -21.3810 H   0  0  0  0  0  0  0  0  0  0  0  0
  -10.8720   -1.9670  -22.5610 C   0  0  0  0  0  0  0  0  0  0  0  0
  -11.4110   -3.0470  -21.8430 C   0  0  0  0  0  0  0  0  0  0  0  0
  -12.7620   -3.0620  -21.5110 C   0  0  0  0  0  0  0  0  0  0  0  0
  -13.4360   -4.3110  -20.5060 Cl  0  0  0  0  0  0  0  0  0  0  0  0
  -13.6410   -2.0700  -21.9380 C   0  0  0  0  0  0  0  0  0  0  0  0
  -13.1300   -1.0210  -22.6660 C   0  0  0  0  0  0  0  0  0  0  0  0
  -11.7740   -0.9740  -22.9870 C   0  0  0  0  0  0  0  0  0  0  0  0
  -11.3310    0.1890  -23.8120 C   0  0  0  0  0  0  0  0  0  0  0  0
  -12.0630    1.1510  -24.0100 O   0  0  0  0  0  0  0  0  0  0  0  0
  -13.7680   -0.2070  -22.9900 H   0  0  0  0  0  0  0  0  0  0  0  0
  -14.7000   -2.1490  -21.7050 H   0  0  0  0  0  0  0  0  0  0  0  0
  -10.7970   -3.8860  -21.5320 H   0  0  0  0  0  0  0  0  0  0  0  0
   -8.1590   -0.5630  -24.1160 H   0  0  0  0  0  0  0  0  0  0  0  0
   -9.2180   -1.6900  -24.9670 H   0  0  0  0  0  0  0  0  0  0  0  0
  -10.3750    1.9450  -25.1450 H   0  0  0  0  0  0  0  0  0  0  0  0
   -9.1530    0.9670  -26.0220 H   0  0  0  0  0  0  0  0  0  0  0  0
   -9.6900    2.3670  -22.7650 H   0  0  0  0  0  0  0  0  0  0  0  0
   -8.1790    3.4770  -21.3590 H   0  0  0  0  0  0  0  0  0  0  0  0
   -7.1140    2.1990  -21.9490 H   0  0  0  0  0  0  0  0  0  0  0  0
   -7.1260    3.7730  -22.7620 H   0  0  0  0  0  0  0  0  0  0  0  0
  1  2  1  0  0  0  0
  1 64  1  0  0  0  0
  1 65  1  0  0  0  0
  1 66  1  0  0  0  0
  2  3  1  0  0  0  0
  2 63  1  0  0  0  0
  3  4  2  0  0  0  0
  3  5  1  0  0  0  0
  5  6  1  0  0  0  0
  5 61  1  0  0  0  0
  5 62  1  0  0  0  0
  6  7  1  0  0  0  0
  6 54  1  0  0  0  0
  7  8  1  0  0  0  0
  7 59  1  0  0  0  0
  7 60  1  0  0  0  0
  8  9  1  0  0  0  0
  8 29  1  0  0  0  0
  8 47  1  0  0  0  0
  9 10  2  0  0  0  0
  9 11  1  0  0  0  0
 11 12  1  0  0  0  0
 11 28  1  0  0  0  0
 12 13  2  0  0  0  0
 12 21  1  0  0  0  0
 13 14  1  0  0  0  0
 13 27  1  0  0  0  0
 14 15  2  0  0  0  0
 15 16  1  0  0  0  0
 15 26  1  0  0  0  0
 16 17  1  0  0  0  0
 16 21  2  0  0  0  0
 17 18  2  0  0  0  0
 17 25  1  0  0  0  0
 18 19  1  0  0  0  0
 18 24  1  0  0  0  0
 19 20  2  0  0  0  0
 19 23  1  0  0  0  0
 20 21  1  0  0  0  0
 20 22  1  0  0  0  0
 28 29  1  0  0  0  0
 28 45  1  0  0  0  0
 28 46  1  0  0  0  0
 29 30  1  0  0  0  0
 29 44  1  0  0  0  0
 30 31  1  0  0  0  0
 30 42  1  0  0  0  0
 30 43  1  0  0  0  0
 31 32  1  0  0  0  0
 31 41  1  0  0  0  0
 32 33  2  0  0  0  0
 32 37  1  0  0  0  0
 33 34  1  0  0  0  0
 33 40  1  0  0  0  0
 34 35  2  0  0  0  0
 35 36  1  0  0  0  0
 35 39  1  0  0  0  0
 36 37  2  0  0  0  0
 36 38  1  0  0  0  0
 47 48  1  0  0  0  0
 47 53  2  0  0  0  0
 48 49  2  0  0  0  0
 48 58  1  0  0  0  0
 49 50  1  0  0  0  0
 49 51  1  0  0  0  0
 51 52  2  0  0  0  0
 51 57  1  0  0  0  0
 52 53  1  0  0  0  0
 52 56  1  0  0  0  0
 53 54  1  0  0  0  0
 54 55  2  0  0  0  0
M  END
$$$$
mol76_score_22.4537
  PyMOL2.5          3D                             0

 66 71  0  0  1  0  0  0  0  0999 V2000
   -8.1960   -3.4700  -24.1020 C   0  0  0  0  0  0  0  0  0  0  0  0
   -8.4650   -2.7340  -22.7830 C   0  0  1  0  0  0  0  0  0  0  0  0
   -7.1830   -2.5230  -21.9490 C   0  0  0  0  0  0  0  0  0  0  0  0
   -7.4580   -1.3160  -21.1890 N   0  0  0  0  0  0  0  0  0  0  0  0
   -6.6200   -0.7910  -20.1650 C   0  0  0  0  0  0  0  0  0  0  0  0
   -6.9130   -1.0440  -18.8520 C   0  0  0  0  0  0  0  0  0  0  0  0
   -6.1990   -0.5660  -17.8040 N   0  0  0  0  0  0  0  0  0  0  0  0
   -5.1710    0.2030  -18.0750 C   0  0  0  0  0  0  0  0  0  0  0  0
   -4.7480    0.5490  -19.3890 C   0  0  0  0  0  0  0  0  0  0  0  0
   -3.6280    1.3930  -19.6340 C   0  0  0  0  0  0  0  0  0  0  0  0
   -3.2580    1.7080  -20.9130 C   0  0  0  0  0  0  0  0  0  0  0  0
   -3.9880    1.1940  -22.0050 C   0  0  0  0  0  0  0  0  0  0  0  0
   -5.0650    0.3620  -21.7960 C   0  0  0  0  0  0  0  0  0  0  0  0
   -5.4900    0.0300  -20.4800 C   0  0  0  0  0  0  0  0  0  0  0  0
   -5.5690   -0.0770  -22.6510 H   0  0  0  0  0  0  0  0  0  0  0  0
   -3.6690    1.4160  -23.0200 H   0  0  0  0  0  0  0  0  0  0  0  0
   -2.3970    2.3480  -21.0970 H   0  0  0  0  0  0  0  0  0  0  0  0
   -3.0850    1.7850  -18.7780 H   0  0  0  0  0  0  0  0  0  0  0  0
   -4.6200    0.6080  -17.2240 H   0  0  0  0  0  0  0  0  0  0  0  0
   -7.7710   -1.6640  -18.5970 H   0  0  0  0  0  0  0  0  0  0  0  0
   -8.5330   -0.5950  -21.6480 C   0  0  0  0  0  0  0  0  0  0  0  0
   -8.9230    0.4490  -21.1550 O   0  0  0  0  0  0  0  0  0  0  0  0
   -9.1330   -1.3220  -22.8770 C   0  0  1  0  0  0  0  0  0  0  0  0
   -8.7120   -0.5860  -24.1700 C   0  0  0  0  0  0  0  0  0  0  0  0
   -9.3140    0.7290  -24.2650 N   0  0  0  0  0  0  0  0  0  0  0  0
   -8.5180    1.7850  -24.8630 C   0  0  0  0  0  0  0  0  0  0  0  0
   -7.5560    2.4180  -23.8690 C   0  0  0  0  0  0  0  0  0  0  0  0
   -8.2810    3.2270  -22.8370 N   0  3  0  0  0  0  0  0  0  0  0  0
   -7.4920    3.3300  -21.5790 C   0  0  0  0  0  0  0  0  0  0  0  0
   -6.3350    4.3080  -21.6370 C   0  0  0  0  0  0  0  0  0  0  0  0
   -6.8020    5.6000  -21.9560 O   0  0  0  0  0  0  0  0  0  0  0  0
   -7.4380    5.5940  -23.2140 C   0  0  0  0  0  0  0  0  0  0  0  0
   -8.6440    4.6470  -23.2540 C   0  0  0  0  0  0  0  0  0  0  0  0
   -9.4030    5.0030  -22.5520 H   0  0  0  0  0  0  0  0  0  0  0  0
   -9.0680    4.6200  -24.2590 H   0  0  0  0  0  0  0  0  0  0  0  0
   -6.7130    5.3070  -23.9890 H   0  0  0  0  0  0  0  0  0  0  0  0
   -7.7630    6.6210  -23.3970 H   0  0  0  0  0  0  0  0  0  0  0  0
   -5.8830    4.3740  -20.6450 H   0  0  0  0  0  0  0  0  0  0  0  0
   -5.5690    3.9740  -22.3570 H   0  0  0  0  0  0  0  0  0  0  0  0
   -7.1440    2.3260  -21.3190 H   0  0  0  0  0  0  0  0  0  0  0  0
   -8.1750    3.6910  -20.8080 H   0  0  0  0  0  0  0  0  0  0  0  0
   -9.1400    2.7020  -22.5770 H   0  0  0  0  0  0  0  0  0  0  0  0
   -6.9920    1.6470  -23.3300 H   0  0  0  0  0  0  0  0  0  0  0  0
   -6.8340    3.0540  -24.3850 H   0  0  0  0  0  0  0  0  0  0  0  0
   -7.9410    1.3740  -25.6970 H   0  0  0  0  0  0  0  0  0  0  0  0
   -9.2180    2.5290  -25.2410 H   0  0  0  0  0  0  0  0  0  0  0  0
  -10.6610    0.8880  -24.1090 C   0  0  0  0  0  0  0  0  0  0  0  0
  -11.2700    1.8900  -24.4710 O   0  0  0  0  0  0  0  0  0  0  0  0
  -11.3640   -0.2370  -23.4040 C   0  0  0  0  0  0  0  0  0  0  0  0
  -12.7520   -0.1630  -23.3110 C   0  0  0  0  0  0  0  0  0  0  0  0
  -13.4430   -1.0970  -22.5680 C   0  0  0  0  0  0  0  0  0  0  0  0
  -12.7330   -2.0840  -21.8870 C   0  0  0  0  0  0  0  0  0  0  0  0
  -13.6210   -3.1090  -20.8000 Cl  0  0  0  0  0  0  0  0  0  0  0  0
  -11.3580   -2.1930  -21.9970 C   0  0  0  0  0  0  0  0  0  0  0  0
  -10.6520   -1.2860  -22.7990 C   0  0  0  0  0  0  0  0  0  0  0  0
  -10.8440   -2.9530  -21.4190 H   0  0  0  0  0  0  0  0  0  0  0  0
  -14.5180   -1.0520  -22.4580 H   0  0  0  0  0  0  0  0  0  0  0  0
  -13.2510    0.6670  -23.8020 H   0  0  0  0  0  0  0  0  0  0  0  0
   -7.6250   -0.4570  -24.1820 H   0  0  0  0  0  0  0  0  0  0  0  0
   -9.0060   -1.2050  -25.0330 H   0  0  0  0  0  0  0  0  0  0  0  0
   -6.9740   -3.3630  -21.2770 H   0  0  0  0  0  0  0  0  0  0  0  0
   -6.3030   -2.3980  -22.5990 H   0  0  0  0  0  0  0  0  0  0  0  0
   -9.1430   -3.3470  -22.1840 H   0  0  0  0  0  0  0  0  0  0  0  0
   -9.1010   -3.5770  -24.7110 H   0  0  0  0  0  0  0  0  0  0  0  0
   -7.4490   -2.9410  -24.7070 H   0  0  0  0  0  0  0  0  0  0  0  0
   -7.8030   -4.4760  -23.9150 H   0  0  0  0  0  0  0  0  0  0  0  0
  1  2  1  0  0  0  0
  1 64  1  0  0  0  0
  1 65  1  0  0  0  0
  1 66  1  0  0  0  0
  2  3  1  0  0  0  0
  2 23  1  0  0  0  0
  2 63  1  0  0  0  0
  3  4  1  0  0  0  0
  3 61  1  0  0  0  0
  3 62  1  0  0  0  0
  4  5  1  0  0  0  0
  4 21  1  0  0  0  0
  5  6  2  0  0  0  0
  5 14  1  0  0  0  0
  6  7  1  0  0  0  0
  6 20  1  0  0  0  0
  7  8  2  0  0  0  0
  8  9  1  0  0  0  0
  8 19  1  0  0  0  0
  9 10  1  0  0  0  0
  9 14  2  0  0  0  0
 10 11  2  0  0  0  0
 10 18  1  0  0  0  0
 11 12  1  0  0  0  0
 11 17  1  0  0  0  0
 12 13  2  0  0  0  0
 12 16  1  0  0  0  0
 13 14  1  0  0  0  0
 13 15  1  0  0  0  0
 21 22  2  0  0  0  0
 21 23  1  0  0  0  0
 23 24  1  0  0  0  0
 23 55  1  0  0  0  0
 24 25  1  0  0  0  0
 24 59  1  0  0  0  0
 24 60  1  0  0  0  0
 25 26  1  0  0  0  0
 25 47  1  0  0  0  0
 26 27  1  0  0  0  0
 26 45  1  0  0  0  0
 26 46  1  0  0  0  0
 27 28  1  0  0  0  0
 27 43  1  0  0  0  0
 27 44  1  0  0  0  0
 28 29  1  0  0  0  0
 28 33  1  0  0  0  0
 28 42  1  0  0  0  0
 29 30  1  0  0  0  0
 29 40  1  0  0  0  0
 29 41  1  0  0  0  0
 30 31  1  0  0  0  0
 30 38  1  0  0  0  0
 30 39  1  0  0  0  0
 31 32  1  0  0  0  0
 32 33  1  0  0  0  0
 32 36  1  0  0  0  0
 32 37  1  0  0  0  0
 33 34  1  0  0  0  0
 33 35  1  0  0  0  0
 47 48  2  0  0  0  0
 47 49  1  0  0  0  0
 49 50  2  0  0  0  0
 49 55  1  0  0  0  0
 50 51  1  0  0  0  0
 50 58  1  0  0  0  0
 51 52  2  0  0  0  0
 51 57  1  0  0  0  0
 52 53  1  0  0  0  0
 52 54  1  0  0  0  0
 54 55  2  0  0  0  0
 54 56  1  0  0  0  0
M  END
$$$$
mol77_score_26.1332
  PyMOL2.5          3D                             0

 55 60  0  0  1  0  0  0  0  0999 V2000
  -10.4050   -1.0400  -23.3540 C   0  0  0  0  0  0  0  0  0  0  0  0
   -8.9750   -1.4050  -22.9830 C   0  0  1  0  0  0  0  0  0  0  0  0
   -8.3850   -0.4920  -21.8970 C   0  0  0  0  0  0  0  0  0  0  0  0
   -7.4030   -1.3440  -21.2470 N   0  0  0  0  0  0  0  0  0  0  0  0
   -6.5990   -0.8670  -20.1900 C   0  0  0  0  0  0  0  0  0  0  0  0
   -6.8990   -1.1650  -18.8870 C   0  0  0  0  0  0  0  0  0  0  0  0
   -6.2350   -0.6430  -17.8240 N   0  0  0  0  0  0  0  0  0  0  0  0
   -5.2390    0.1730  -18.0690 C   0  0  0  0  0  0  0  0  0  0  0  0
   -4.8030    0.5330  -19.3770 C   0  0  0  0  0  0  0  0  0  0  0  0
   -3.6900    1.3830  -19.6050 C   0  0  0  0  0  0  0  0  0  0  0  0
   -3.3300    1.7200  -20.8810 C   0  0  0  0  0  0  0  0  0  0  0  0
   -4.0580    1.2220  -21.9860 C   0  0  0  0  0  0  0  0  0  0  0  0
   -5.1130    0.3670  -21.7940 C   0  0  0  0  0  0  0  0  0  0  0  0
   -5.5130    0.0110  -20.4800 C   0  0  0  0  0  0  0  0  0  0  0  0
   -5.6420   -0.0580  -22.6420 H   0  0  0  0  0  0  0  0  0  0  0  0
   -3.7640    1.4990  -22.9940 H   0  0  0  0  0  0  0  0  0  0  0  0
   -2.4800    2.3720  -21.0590 H   0  0  0  0  0  0  0  0  0  0  0  0
   -3.1400    1.7620  -18.7480 H   0  0  0  0  0  0  0  0  0  0  0  0
   -4.7140    0.5930  -17.2090 H   0  0  0  0  0  0  0  0  0  0  0  0
   -7.7150   -1.8450  -18.6500 H   0  0  0  0  0  0  0  0  0  0  0  0
   -7.6240   -2.6910  -21.4490 C   0  0  0  0  0  0  0  0  0  0  0  0
   -6.9770   -3.5830  -20.9410 O   0  0  0  0  0  0  0  0  0  0  0  0
   -8.7990   -2.8600  -22.4180 C   0  0  1  0  0  0  0  0  0  0  0  0
  -10.0250   -3.3210  -21.5850 C   0  0  0  0  0  0  0  0  0  0  0  0
  -11.1320   -3.7620  -22.4090 N   0  0  0  0  0  0  0  0  0  0  0  0
  -12.5050   -3.6600  -21.9420 C   0  0  0  0  0  0  0  0  0  0  0  0
  -13.3280   -2.5420  -22.4950 C   0  0  0  0  0  0  0  0  0  0  0  0
  -14.0340   -2.5450  -23.6400 C   0  0  0  0  0  0  0  0  0  0  0  0
  -14.7580   -1.3940  -23.7060 O   0  0  0  0  0  0  0  0  0  0  0  0
  -14.4610   -0.7510  -22.5610 C   0  0  0  0  0  0  0  0  0  0  0  0
  -13.6290   -1.3780  -21.7920 N   0  0  0  0  0  0  0  0  0  0  0  0
  -14.9470    0.2030  -22.3970 H   0  0  0  0  0  0  0  0  0  0  0  0
  -14.1470   -3.2470  -24.4500 H   0  0  0  0  0  0  0  0  0  0  0  0
  -12.5240   -3.5840  -20.8580 H   0  0  0  0  0  0  0  0  0  0  0  0
  -12.9880   -4.5910  -22.2460 H   0  0  0  0  0  0  0  0  0  0  0  0
  -10.9270   -4.5030  -23.5370 C   0  0  0  0  0  0  0  0  0  0  0  0
  -11.8650   -4.9670  -24.1680 O   0  0  0  0  0  0  0  0  0  0  0  0
   -9.5140   -4.7050  -23.9750 C   0  0  0  0  0  0  0  0  0  0  0  0
   -9.2520   -5.7060  -24.9120 C   0  0  0  0  0  0  0  0  0  0  0  0
   -7.9710   -5.9000  -25.4010 C   0  0  0  0  0  0  0  0  0  0  0  0
   -6.9670   -5.0480  -24.9470 C   0  0  0  0  0  0  0  0  0  0  0  0
   -5.7220   -5.1960  -25.4300 F   0  0  0  0  0  0  0  0  0  0  0  0
   -7.1880   -4.0800  -23.9840 C   0  0  0  0  0  0  0  0  0  0  0  0
   -8.4850   -3.9000  -23.4770 C   0  0  0  0  0  0  0  0  0  0  0  0
   -6.3440   -3.5190  -23.5880 H   0  0  0  0  0  0  0  0  0  0  0  0
   -7.7300   -6.6960  -26.1020 H   0  0  0  0  0  0  0  0  0  0  0  0
  -10.0710   -6.3440  -25.2350 H   0  0  0  0  0  0  0  0  0  0  0  0
  -10.3830   -2.4910  -20.9740 H   0  0  0  0  0  0  0  0  0  0  0  0
   -9.6990   -4.1110  -20.9010 H   0  0  0  0  0  0  0  0  0  0  0  0
   -9.1590   -0.1580  -21.1860 H   0  0  0  0  0  0  0  0  0  0  0  0
   -7.9230    0.4160  -22.2990 H   0  0  0  0  0  0  0  0  0  0  0  0
   -8.3290   -1.3400  -23.8700 H   0  0  0  0  0  0  0  0  0  0  0  0
  -10.4720   -0.0690  -23.8490 H   0  0  0  0  0  0  0  0  0  0  0  0
  -10.8330   -1.8000  -24.0140 H   0  0  0  0  0  0  0  0  0  0  0  0
  -11.0280   -0.9950  -22.4560 H   0  0  0  0  0  0  0  0  0  0  0  0
  1  2  1  0  0  0  0
  1 53  1  0  0  0  0
  1 54  1  0  0  0  0
  1 55  1  0  0  0  0
  2  3  1  0  0  0  0
  2 23  1  0  0  0  0
  2 52  1  0  0  0  0
  3  4  1  0  0  0  0
  3 50  1  0  0  0  0
  3 51  1  0  0  0  0
  4  5  1  0  0  0  0
  4 21  1  0  0  0  0
  5  6  2  0  0  0  0
  5 14  1  0  0  0  0
  6  7  1  0  0  0  0
  6 20  1  0  0  0  0
  7  8  2  0  0  0  0
  8  9  1  0  0  0  0
  8 19  1  0  0  0  0
  9 10  1  0  0  0  0
  9 14  2  0  0  0  0
 10 11  2  0  0  0  0
 10 18  1  0  0  0  0
 11 12  1  0  0  0  0
 11 17  1  0  0  0  0
 12 13  2  0  0  0  0
 12 16  1  0  0  0  0
 13 14  1  0  0  0  0
 13 15  1  0  0  0  0
 21 22  2  0  0  0  0
 21 23  1  0  0  0  0
 23 24  1  0  0  0  0
 23 44  1  0  0  0  0
 24 25  1  0  0  0  0
 24 48  1  0  0  0  0
 24 49  1  0  0  0  0
 25 26  1  0  0  0  0
 25 36  1  0  0  0  0
 26 27  1  0  0  0  0
 26 34  1  0  0  0  0
 26 35  1  0  0  0  0
 27 28  2  0  0  0  0
 27 31  1  0  0  0  0
 28 29  1  0  0  0  0
 28 33  1  0  0  0  0
 29 30  1  0  0  0  0
 30 31  2  0  0  0  0
 30 32  1  0  0  0  0
 36 37  2  0  0  0  0
 36 38  1  0  0  0  0
 38 39  2  0  0  0  0
 38 44  1  0  0  0  0
 39 40  1  0  0  0  0
 39 47  1  0  0  0  0
 40 41  2  0  0  0  0
 40 46  1  0  0  0  0
 41 42  1  0  0  0  0
 41 43  1  0  0  0  0
 43 44  2  0  0  0  0
 43 45  1  0  0  0  0
M  END
$$$$
mol78_score_24.4589
  PyMOL2.5          3D                             0

 56 60  0  0  1  0  0  0  0  0999 V2000
  -14.4820   -0.5290  -22.6530 C   0  0  0  0  0  0  0  0  0  0  0  0
  -13.5640   -1.4490  -22.0040 N   0  0  0  0  0  0  0  0  0  0  0  0
  -13.4570   -2.7200  -22.4910 C   0  0  0  0  0  0  0  0  0  0  0  0
  -14.0870   -3.0460  -23.4820 O   0  0  0  0  0  0  0  0  0  0  0  0
  -12.4980   -3.7060  -21.7970 C   0  0  0  0  0  0  0  0  0  0  0  0
  -11.1180   -3.6850  -22.3170 N   0  0  0  0  0  0  0  0  0  0  0  0
   -9.9990   -3.1500  -21.5400 C   0  0  0  0  0  0  0  0  0  0  0  0
   -8.7570   -2.7540  -22.3970 C   0  0  2  0  0  0  0  0  0  0  0  0
   -7.5860   -2.5970  -21.4150 C   0  0  0  0  0  0  0  0  0  0  0  0
   -6.9640   -3.4770  -20.8510 O   0  0  0  0  0  0  0  0  0  0  0  0
   -7.3490   -1.2560  -21.2280 N   0  0  0  0  0  0  0  0  0  0  0  0
   -6.5330   -0.8080  -20.1710 C   0  0  0  0  0  0  0  0  0  0  0  0
   -6.8260   -1.1120  -18.8690 C   0  0  0  0  0  0  0  0  0  0  0  0
   -6.1560   -0.5920  -17.8130 N   0  0  0  0  0  0  0  0  0  0  0  0
   -5.1530    0.2170  -18.0610 C   0  0  0  0  0  0  0  0  0  0  0  0
   -4.7040    0.5580  -19.3730 C   0  0  0  0  0  0  0  0  0  0  0  0
   -3.5840    1.3950  -19.6230 C   0  0  0  0  0  0  0  0  0  0  0  0
   -3.2080    1.6870  -20.9090 C   0  0  0  0  0  0  0  0  0  0  0  0
   -3.9200    1.1520  -22.0060 C   0  0  0  0  0  0  0  0  0  0  0  0
   -4.9940    0.3280  -21.7880 C   0  0  0  0  0  0  0  0  0  0  0  0
   -5.4170    0.0290  -20.4670 C   0  0  0  0  0  0  0  0  0  0  0  0
   -5.5330   -0.1170  -22.6170 H   0  0  0  0  0  0  0  0  0  0  0  0
   -3.6150    1.3930  -23.0220 H   0  0  0  0  0  0  0  0  0  0  0  0
   -2.3550    2.3340  -21.0950 H   0  0  0  0  0  0  0  0  0  0  0  0
   -3.0360    1.8000  -18.7780 H   0  0  0  0  0  0  0  0  0  0  0  0
   -4.6390    0.6350  -17.1970 H   0  0  0  0  0  0  0  0  0  0  0  0
   -7.6430   -1.7960  -18.6360 H   0  0  0  0  0  0  0  0  0  0  0  0
   -8.3330   -0.4020  -21.8690 C   0  0  0  0  0  0  0  0  0  0  0  0
   -8.8940   -1.3050  -22.9780 C   0  0  2  0  0  0  0  0  0  0  0  0
  -10.2930   -0.9070  -23.4370 C   0  0  0  0  0  0  0  0  0  0  0  0
  -10.2830    0.0770  -23.9150 H   0  0  0  0  0  0  0  0  0  0  0  0
  -10.6850   -1.6430  -24.1460 H   0  0  0  0  0  0  0  0  0  0  0  0
  -10.9940   -0.8560  -22.5960 H   0  0  0  0  0  0  0  0  0  0  0  0
   -8.1990   -1.2630  -23.8280 H   0  0  0  0  0  0  0  0  0  0  0  0
   -9.1110   -0.1040  -21.1440 H   0  0  0  0  0  0  0  0  0  0  0  0
   -7.8620    0.5110  -22.2460 H   0  0  0  0  0  0  0  0  0  0  0  0
   -8.4570   -3.8280  -23.4250 C   0  0  0  0  0  0  0  0  0  0  0  0
   -7.1740   -4.0000  -23.9830 C   0  0  0  0  0  0  0  0  0  0  0  0
   -6.9580   -4.9730  -24.9480 C   0  0  0  0  0  0  0  0  0  0  0  0
   -5.3840   -5.1720  -25.6660 Cl  0  0  0  0  0  0  0  0  0  0  0  0
   -7.9820   -5.8140  -25.3770 C   0  0  0  0  0  0  0  0  0  0  0  0
   -9.2320   -5.6570  -24.8140 C   0  0  0  0  0  0  0  0  0  0  0  0
   -9.4730   -4.6820  -23.8480 C   0  0  0  0  0  0  0  0  0  0  0  0
  -10.8570   -4.6110  -23.2900 C   0  0  0  0  0  0  0  0  0  0  0  0
  -11.7270   -5.3640  -23.6910 O   0  0  0  0  0  0  0  0  0  0  0  0
  -10.0630   -6.2920  -25.0950 H   0  0  0  0  0  0  0  0  0  0  0  0
   -7.7860   -6.5880  -26.1140 H   0  0  0  0  0  0  0  0  0  0  0  0
   -6.3260   -3.4110  -23.6490 H   0  0  0  0  0  0  0  0  0  0  0  0
   -9.6370   -3.8740  -20.8040 H   0  0  0  0  0  0  0  0  0  0  0  0
  -10.3600   -2.2790  -20.9830 H   0  0  0  0  0  0  0  0  0  0  0  0
  -12.4760   -3.6070  -20.7110 H   0  0  0  0  0  0  0  0  0  0  0  0
  -12.9130   -4.6790  -22.0620 H   0  0  0  0  0  0  0  0  0  0  0  0
  -13.3340   -1.2630  -21.0440 H   0  0  0  0  0  0  0  0  0  0  0  0
  -15.5130   -0.8950  -22.6310 H   0  0  0  0  0  0  0  0  0  0  0  0
  -14.4270    0.4270  -22.1390 H   0  0  0  0  0  0  0  0  0  0  0  0
  -14.1900   -0.3740  -23.6960 H   0  0  0  0  0  0  0  0  0  0  0  0
  1  2  1  0  0  0  0
  1 54  1  0  0  0  0
  1 55  1  0  0  0  0
  1 56  1  0  0  0  0
  2  3  1  0  0  0  0
  2 53  1  0  0  0  0
  3  4  2  0  0  0  0
  3  5  1  0  0  0  0
  5  6  1  0  0  0  0
  5 51  1  0  0  0  0
  5 52  1  0  0  0  0
  6  7  1  0  0  0  0
  6 44  1  0  0  0  0
  7  8  1  0  0  0  0
  7 49  1  0  0  0  0
  7 50  1  0  0  0  0
  8  9  1  0  0  0  0
  8 29  1  0  0  0  0
  8 37  1  0  0  0  0
  9 10  2  0  0  0  0
  9 11  1  0  0  0  0
 11 12  1  0  0  0  0
 11 28  1  0  0  0  0
 12 13  2  0  0  0  0
 12 21  1  0  0  0  0
 13 14  1  0  0  0  0
 13 27  1  0  0  0  0
 14 15  2  0  0  0  0
 15 16  1  0  0  0  0
 15 26  1  0  0  0  0
 16 17  1  0  0  0  0
 16 21  2  0  0  0  0
 17 18  2  0  0  0  0
 17 25  1  0  0  0  0
 18 19  1  0  0  0  0
 18 24  1  0  0  0  0
 19 20  2  0  0  0  0
 19 23  1  0  0  0  0
 20 21  1  0  0  0  0
 20 22  1  0  0  0  0
 28 29  1  0  0  0  0
 28 35  1  0  0  0  0
 28 36  1  0  0  0  0
 29 30  1  0  0  0  0
 29 34  1  0  0  0  0
 30 31  1  0  0  0  0
 30 32  1  0  0  0  0
 30 33  1  0  0  0  0
 37 38  1  0  0  0  0
 37 43  2  0  0  0  0
 38 39  2  0  0  0  0
 38 48  1  0  0  0  0
 39 40  1  0  0  0  0
 39 41  1  0  0  0  0
 41 42  2  0  0  0  0
 41 47  1  0  0  0  0
 42 43  1  0  0  0  0
 42 46  1  0  0  0  0
 43 44  1  0  0  0  0
 44 45  2  0  0  0  0
M  END
$$$$
mol79_score_20.0126
  PyMOL2.5          3D                             0

 45 49  0  0  0  0  0  0  0  0999 V2000
  -10.5760   -2.6920  -22.4850 C   0  0  0  0  0  0  0  0  0  0  0  0
   -9.1800   -2.4390  -22.1680 N   0  0  0  0  0  0  0  0  0  0  0  0
   -8.7700   -1.3790  -21.3970 C   0  0  0  0  0  0  0  0  0  0  0  0
   -9.4460   -0.4640  -20.9930 O   0  0  0  0  0  0  0  0  0  0  0  0
   -7.3710   -1.5340  -21.2140 N   0  0  0  0  0  0  0  0  0  0  0  0
   -6.6010   -0.8650  -20.2030 C   0  0  0  0  0  0  0  0  0  0  0  0
   -6.9100   -1.0630  -18.8810 C   0  0  0  0  0  0  0  0  0  0  0  0
   -6.2100   -0.5540  -17.8350 N   0  0  0  0  0  0  0  0  0  0  0  0
   -5.1780    0.2050  -18.0980 C   0  0  0  0  0  0  0  0  0  0  0  0
   -4.7470    0.5200  -19.4150 C   0  0  0  0  0  0  0  0  0  0  0  0
   -3.6120    1.3510  -19.6410 C   0  0  0  0  0  0  0  0  0  0  0  0
   -3.2230    1.6580  -20.9130 C   0  0  0  0  0  0  0  0  0  0  0  0
   -3.9550    1.1460  -22.0080 C   0  0  0  0  0  0  0  0  0  0  0  0
   -5.0490    0.3400  -21.8140 C   0  0  0  0  0  0  0  0  0  0  0  0
   -5.4770   -0.0150  -20.5050 C   0  0  0  0  0  0  0  0  0  0  0  0
   -5.5980   -0.0450  -22.6660 H   0  0  0  0  0  0  0  0  0  0  0  0
   -3.6480    1.3980  -23.0180 H   0  0  0  0  0  0  0  0  0  0  0  0
   -2.3670    2.3060  -21.0900 H   0  0  0  0  0  0  0  0  0  0  0  0
   -3.0800    1.7520  -18.7810 H   0  0  0  0  0  0  0  0  0  0  0  0
   -4.6290    0.6100  -17.2460 H   0  0  0  0  0  0  0  0  0  0  0  0
   -7.7570   -1.6830  -18.6030 H   0  0  0  0  0  0  0  0  0  0  0  0
   -6.8740   -2.5200  -22.0660 C   0  0  0  0  0  0  0  0  0  0  0  0
   -5.7140   -2.8100  -22.2280 O   0  0  0  0  0  0  0  0  0  0  0  0
   -8.0760   -3.1390  -22.7670 C   0  0  0  0  0  0  0  0  0  0  0  0
   -8.0030   -3.1990  -24.3160 C   0  0  0  0  0  0  0  0  0  0  0  0
   -7.9670   -4.6830  -24.2770 N   0  0  0  0  0  0  0  0  0  0  0  0
   -9.2360   -5.4900  -25.0540 S   0  0  0  0  0  0  0  0  0  0  0  0
   -9.0210   -6.9010  -24.8190 O   0  0  0  0  0  0  0  0  0  0  0  0
  -10.4820   -4.8440  -24.6580 O   0  0  0  0  0  0  0  0  0  0  0  0
   -9.0170   -5.2260  -26.7920 C   0  0  0  0  0  0  0  0  0  0  0  0
   -8.0930   -6.1540  -27.5280 C   0  0  0  0  0  0  0  0  0  0  0  0
   -9.5760   -6.3000  -27.7000 C   0  0  0  0  0  0  0  0  0  0  0  0
  -10.0330   -5.9740  -28.6330 H   0  0  0  0  0  0  0  0  0  0  0  0
  -10.0730   -7.1450  -27.2230 H   0  0  0  0  0  0  0  0  0  0  0  0
   -7.5730   -6.9010  -26.9300 H   0  0  0  0  0  0  0  0  0  0  0  0
   -7.5150   -5.7260  -28.3440 H   0  0  0  0  0  0  0  0  0  0  0  0
   -9.1130   -4.1800  -27.0730 H   0  0  0  0  0  0  0  0  0  0  0  0
   -8.0800   -4.6790  -22.7770 C   0  0  0  0  0  0  0  0  0  0  0  0
   -7.2010   -5.1200  -22.3090 H   0  0  0  0  0  0  0  0  0  0  0  0
   -8.9920   -5.1240  -22.3720 H   0  0  0  0  0  0  0  0  0  0  0  0
   -7.0750   -2.8130  -24.7340 H   0  0  0  0  0  0  0  0  0  0  0  0
   -8.8660   -2.7700  -24.8380 H   0  0  0  0  0  0  0  0  0  0  0  0
  -10.7800   -2.5110  -23.5480 H   0  0  0  0  0  0  0  0  0  0  0  0
  -10.8560   -3.7270  -22.2480 H   0  0  0  0  0  0  0  0  0  0  0  0
  -11.1620   -2.0030  -21.8770 H   0  0  0  0  0  0  0  0  0  0  0  0
  1  2  1  0  0  0  0
  1 43  1  0  0  0  0
  1 44  1  0  0  0  0
  1 45  1  0  0  0  0
  2  3  1  0  0  0  0
  2 24  1  0  0  0  0
  3  4  2  0  0  0  0
  3  5  1  0  0  0  0
  5  6  1  0  0  0  0
  5 22  1  0  0  0  0
  6  7  2  0  0  0  0
  6 15  1  0  0  0  0
  7  8  1  0  0  0  0
  7 21  1  0  0  0  0
  8  9  2  0  0  0  0
  9 10  1  0  0  0  0
  9 20  1  0  0  0  0
 10 11  1  0  0  0  0
 10 15  2  0  0  0  0
 11 12  2  0  0  0  0
 11 19  1  0  0  0  0
 12 13  1  0  0  0  0
 12 18  1  0  0  0  0
 13 14  2  0  0  0  0
 13 17  1  0  0  0  0
 14 15  1  0  0  0  0
 14 16  1  0  0  0  0
 22 23  2  0  0  0  0
 22 24  1  0  0  0  0
 24 25  1  0  0  0  0
 24 38  1  0  0  0  0
 25 26  1  0  0  0  0
 25 41  1  0  0  0  0
 25 42  1  0  0  0  0
 26 27  1  0  0  0  0
 26 38  1  0  0  0  0
 27 28  2  0  0  0  0
 27 29  2  0  0  0  0
 27 30  1  0  0  0  0
 30 31  1  0  0  0  0
 30 32  1  0  0  0  0
 30 37  1  0  0  0  0
 31 32  1  0  0  0  0
 31 35  1  0  0  0  0
 31 36  1  0  0  0  0
 32 33  1  0  0  0  0
 32 34  1  0  0  0  0
 38 39  1  0  0  0  0
 38 40  1  0  0  0  0
M  END
$$$$
mol80_score_22.3206
  PyMOL2.5          3D                             0

 60 65  0  0  1  0  0  0  0  0999 V2000
   -2.6750   -6.5140  -23.2590 C   0  0  0  0  0  0  0  0  0  0  0  0
   -3.8520   -6.1770  -22.4550 N   0  0  0  0  0  0  0  0  0  0  0  0
   -4.7670   -7.2010  -22.2740 C   0  0  0  0  0  0  0  0  0  0  0  0
   -4.5990   -8.2060  -22.9480 O   0  0  0  0  0  0  0  0  0  0  0  0
   -6.3470   -7.2110  -21.1120 C   0  0  0  0  0  0  0  0  0  0  0  0
   -7.5030   -5.3440  -22.9200 N   0  0  0  0  0  0  0  0  0  0  0  0
   -8.4100   -4.3020  -22.6110 C   0  0  0  0  0  0  0  0  0  0  0  0
   -7.9640   -2.8680  -23.0610 C   0  0  2  0  0  0  0  0  0  0  0  0
   -6.8070   -2.3530  -22.1690 C   0  0  0  0  0  0  0  0  0  0  0  0
   -5.6490   -2.7360  -22.1850 O   0  0  0  0  0  0  0  0  0  0  0  0
   -7.3050   -1.4010  -21.3030 N   0  0  0  0  0  0  0  0  0  0  0  0
   -6.5510   -0.8120  -20.2650 C   0  0  0  0  0  0  0  0  0  0  0  0
   -6.9340   -0.9920  -18.9590 C   0  0  0  0  0  0  0  0  0  0  0  0
   -6.2660   -0.5100  -17.8860 N   0  0  0  0  0  0  0  0  0  0  0  0
   -5.1950    0.2070  -18.1150 C   0  0  0  0  0  0  0  0  0  0  0  0
   -4.7140    0.5170  -19.4170 C   0  0  0  0  0  0  0  0  0  0  0  0
   -3.5660    1.3300  -19.6000 C   0  0  0  0  0  0  0  0  0  0  0  0
   -3.1660    1.6890  -20.8580 C   0  0  0  0  0  0  0  0  0  0  0  0
   -3.8950    1.2480  -21.9850 C   0  0  0  0  0  0  0  0  0  0  0  0
   -4.9920    0.4350  -21.8350 C   0  0  0  0  0  0  0  0  0  0  0  0
   -5.4190    0.0270  -20.5380 C   0  0  0  0  0  0  0  0  0  0  0  0
   -5.5470    0.1000  -22.7050 H   0  0  0  0  0  0  0  0  0  0  0  0
   -3.5870    1.5700  -22.9760 H   0  0  0  0  0  0  0  0  0  0  0  0
   -2.3010    2.3330  -20.9940 H   0  0  0  0  0  0  0  0  0  0  0  0
   -3.0410    1.6860  -18.7180 H   0  0  0  0  0  0  0  0  0  0  0  0
   -4.6590    0.5960  -17.2490 H   0  0  0  0  0  0  0  0  0  0  0  0
   -7.8200   -1.5820  -18.7330 H   0  0  0  0  0  0  0  0  0  0  0  0
   -8.7580   -1.3340  -21.3420 C   0  0  0  0  0  0  0  0  0  0  0  0
   -9.0670   -1.8080  -22.7650 C   0  0  2  0  0  0  0  0  0  0  0  0
  -10.5120   -2.2380  -22.9830 C   0  0  0  0  0  0  0  0  0  0  0  0
  -10.8010   -3.0170  -22.2670 H   0  0  0  0  0  0  0  0  0  0  0  0
  -11.1980   -1.3940  -22.8480 H   0  0  0  0  0  0  0  0  0  0  0  0
  -10.6590   -2.6370  -23.9950 H   0  0  0  0  0  0  0  0  0  0  0  0
   -8.8620   -0.9520  -23.4120 H   0  0  0  0  0  0  0  0  0  0  0  0
   -9.0900   -0.3100  -21.1520 H   0  0  0  0  0  0  0  0  0  0  0  0
   -9.2270   -1.9980  -20.5960 H   0  0  0  0  0  0  0  0  0  0  0  0
   -7.5490   -2.9710  -24.5110 C   0  0  0  0  0  0  0  0  0  0  0  0
   -7.4690   -1.8310  -25.3200 C   0  0  0  0  0  0  0  0  0  0  0  0
   -7.0280   -1.9440  -26.6230 C   0  0  0  0  0  0  0  0  0  0  0  0
   -6.9770   -0.5160  -27.6160 Cl  0  0  0  0  0  0  0  0  0  0  0  0
   -6.6390   -3.1690  -27.1630 C   0  0  0  0  0  0  0  0  0  0  0  0
   -6.7160   -4.2950  -26.3660 C   0  0  0  0  0  0  0  0  0  0  0  0
   -7.1780   -4.2060  -25.0550 C   0  0  0  0  0  0  0  0  0  0  0  0
   -7.2590   -5.4870  -24.2360 C   0  0  0  0  0  0  0  0  0  0  0  0
   -7.0310   -6.5540  -24.8000 O   0  0  0  0  0  0  0  0  0  0  0  0
   -6.4240   -5.2710  -26.7370 H   0  0  0  0  0  0  0  0  0  0  0  0
   -6.2770   -3.2200  -28.1840 H   0  0  0  0  0  0  0  0  0  0  0  0
   -7.7400   -0.8490  -24.9490 H   0  0  0  0  0  0  0  0  0  0  0  0
   -9.4030   -4.4670  -23.0830 H   0  0  0  0  0  0  0  0  0  0  0  0
   -8.5840   -4.2820  -21.5260 H   0  0  0  0  0  0  0  0  0  0  0  0
   -5.9530   -7.0300  -20.9540 C   0  0  0  0  0  0  0  0  0  0  0  0
   -6.0660   -5.9010  -20.4370 C   0  0  0  0  0  0  0  0  0  0  0  0
   -6.2080   -5.5730  -19.3690 H   0  0  0  0  0  0  0  0  0  0  0  0
   -5.9190   -5.1690  -21.2430 H   0  0  0  0  0  0  0  0  0  0  0  0
   -7.1780   -7.3920  -21.8360 H   0  0  0  0  0  0  0  0  0  0  0  0
   -5.7620   -8.1890  -20.6110 H   0  0  0  0  0  0  0  0  0  0  0  0
   -4.0170   -5.1960  -22.2660 H   0  0  0  0  0  0  0  0  0  0  0  0
   -2.1260   -7.3300  -22.7820 H   0  0  0  0  0  0  0  0  0  0  0  0
   -2.9600   -6.8770  -24.2510 H   0  0  0  0  0  0  0  0  0  0  0  0
   -2.0130   -5.6480  -23.3650 H   0  0  0  0  0  0  0  0  0  0  0  0
  1  2  1  0  0  0  0
  1 58  1  0  0  0  0
  1 59  1  0  0  0  0
  1 60  1  0  0  0  0
  2  3  1  0  0  0  0
  2 57  1  0  0  0  0
  3  4  2  0  0  0  0
  3  5  1  0  0  0  0
  5  6  1  0  0  0  0
  5 51  1  0  0  0  0
  5 52  1  0  0  0  0
  6  7  1  0  0  0  0
  6 44  1  0  0  0  0
  7  8  1  0  0  0  0
  7 49  1  0  0  0  0
  7 50  1  0  0  0  0
  8  9  1  0  0  0  0
  8 29  1  0  0  0  0
  8 37  1  0  0  0  0
  9 10  2  0  0  0  0
  9 11  1  0  0  0  0
 11 12  1  0  0  0  0
 11 28  1  0  0  0  0
 12 13  2  0  0  0  0
 12 21  1  0  0  0  0
 13 14  1  0  0  0  0
 13 27  1  0  0  0  0
 14 15  2  0  0  0  0
 15 16  1  0  0  0  0
 15 26  1  0  0  0  0
 16 17  1  0  0  0  0
 16 21  2  0  0  0  0
 17 18  2  0  0  0  0
 17 25  1  0  0  0  0
 18 19  1  0  0  0  0
 18 24  1  0  0  0  0
 19 20  2  0  0  0  0
 19 23  1  0  0  0  0
 20 21  1  0  0  0  0
 20 22  1  0  0  0  0
 28 29  1  0  0  0  0
 28 35  1  0  0  0  0
 28 36  1  0  0  0  0
 29 30  1  0  0  0  0
 29 34  1  0  0  0  0
 30 31  1  0  0  0  0
 30 32  1  0  0  0  0
 30 33  1  0  0  0  0
 37 38  2  0  0  0  0
 37 43  1  0  0  0  0
 38 39  1  0  0  0  0
 38 48  1  0  0  0  0
 39 40  1  0  0  0  0
 39 41  2  0  0  0  0
 41 42  1  0  0  0  0
 41 47  1  0  0  0  0
 42 43  2  0  0  0  0
 42 46  1  0  0  0  0
 43 44  1  0  0  0  0
 44 45  2  0  0  0  0
 51 52  1  0  0  0  0
 51 55  1  0  0  0  0
 51 56  1  0  0  0  0
 52 53  1  0  0  0  0
 52 54  1  0  0  0  0
M  END
$$$$
mol81_score_15.9616
  PyMOL2.5          3D                             0

 36 38  0  0  0  0  0  0  0  0999 V2000
   -8.5080    0.7110  -21.4640 O   0  0  0  0  0  0  0  0  0  0  0  0
   -8.3850   -0.4010  -21.9340 C   0  0  0  0  0  0  0  0  0  0  0  0
   -7.4380   -1.4330  -21.2760 C   0  0  0  0  0  0  0  0  0  0  0  0
   -6.5820   -0.8280  -20.1850 C   0  0  0  0  0  0  0  0  0  0  0  0
   -6.8790   -1.0410  -18.8630 C   0  0  0  0  0  0  0  0  0  0  0  0
   -6.1920   -0.5410  -17.8010 N   0  0  0  0  0  0  0  0  0  0  0  0
   -5.1580    0.2200  -18.0640 C   0  0  0  0  0  0  0  0  0  0  0  0
   -4.7260    0.5370  -19.3800 C   0  0  0  0  0  0  0  0  0  0  0  0
   -3.6000    1.3670  -19.6180 C   0  0  0  0  0  0  0  0  0  0  0  0
   -3.2170    1.6730  -20.8970 C   0  0  0  0  0  0  0  0  0  0  0  0
   -3.9610    1.1710  -21.9870 C   0  0  0  0  0  0  0  0  0  0  0  0
   -5.0470    0.3520  -21.7820 C   0  0  0  0  0  0  0  0  0  0  0  0
   -5.4600    0.0080  -20.4700 C   0  0  0  0  0  0  0  0  0  0  0  0
   -5.5740   -0.0630  -22.6340 H   0  0  0  0  0  0  0  0  0  0  0  0
   -3.6300    1.3780  -22.9990 H   0  0  0  0  0  0  0  0  0  0  0  0
   -2.3510    2.3020  -21.0860 H   0  0  0  0  0  0  0  0  0  0  0  0
   -3.0560    1.7720  -18.7680 H   0  0  0  0  0  0  0  0  0  0  0  0
   -4.6030    0.6260  -17.2150 H   0  0  0  0  0  0  0  0  0  0  0  0
   -7.7290   -1.6600  -18.5850 H   0  0  0  0  0  0  0  0  0  0  0  0
   -6.8020   -1.8990  -22.0410 H   0  0  0  0  0  0  0  0  0  0  0  0
   -8.0410   -2.2450  -20.8450 H   0  0  0  0  0  0  0  0  0  0  0  0
   -9.0620   -0.7720  -23.0900 N   0  0  0  0  0  0  0  0  0  0  0  0
  -10.0070    0.1960  -23.6430 C   0  0  0  0  0  0  0  0  0  0  0  0
  -11.3810    0.2140  -23.0220 C   0  0  0  0  0  0  0  0  0  0  0  0
  -12.0220   -0.7920  -22.4180 C   0  0  0  0  0  0  0  0  0  0  0  0
  -11.5710   -2.1760  -22.1570 C   0  0  0  0  0  0  0  0  0  0  0  0
  -10.4480   -2.7810  -22.5520 C   0  0  0  0  0  0  0  0  0  0  0  0
   -9.3680   -2.1600  -23.4040 C   0  0  0  0  0  0  0  0  0  0  0  0
   -8.4500   -2.7530  -23.3590 H   0  0  0  0  0  0  0  0  0  0  0  0
   -9.6830   -2.1750  -24.4540 H   0  0  0  0  0  0  0  0  0  0  0  0
  -10.2820   -3.8160  -22.2470 H   0  0  0  0  0  0  0  0  0  0  0  0
  -12.2760   -2.7630  -21.5730 H   0  0  0  0  0  0  0  0  0  0  0  0
  -13.0200   -0.5790  -22.0380 H   0  0  0  0  0  0  0  0  0  0  0  0
  -11.8920    1.1790  -23.0820 H   0  0  0  0  0  0  0  0  0  0  0  0
  -10.1120   -0.0400  -24.7090 H   0  0  0  0  0  0  0  0  0  0  0  0
   -9.5580    1.1910  -23.5950 H   0  0  0  0  0  0  0  0  0  0  0  0
  1  2  2  0  0  0  0
  2  3  1  0  0  0  0
  2 22  1  0  0  0  0
  3  4  1  0  0  0  0
  3 20  1  0  0  0  0
  3 21  1  0  0  0  0
  4  5  2  0  0  0  0
  4 13  1  0  0  0  0
  5  6  1  0  0  0  0
  5 19  1  0  0  0  0
  6  7  2  0  0  0  0
  7  8  1  0  0  0  0
  7 18  1  0  0  0  0
  8  9  1  0  0  0  0
  8 13  2  0  0  0  0
  9 10  2  0  0  0  0
  9 17  1  0  0  0  0
 10 11  1  0  0  0  0
 10 16  1  0  0  0  0
 11 12  2  0  0  0  0
 11 15  1  0  0  0  0
 12 13  1  0  0  0  0
 12 14  1  0  0  0  0
 22 23  1  0  0  0  0
 22 28  1  0  0  0  0
 23 24  1  0  0  0  0
 23 35  1  0  0  0  0
 23 36  1  0  0  0  0
 24 25  2  0  0  0  0
 24 34  1  0  0  0  0
 25 26  1  0  0  0  0
 25 33  1  0  0  0  0
 26 27  2  0  0  0  0
 26 32  1  0  0  0  0
 27 28  1  0  0  0  0
 27 31  1  0  0  0  0
 28 29  1  0  0  0  0
 28 30  1  0  0  0  0
M  END
$$$$
mol84_score_26.7072
  PyMOL2.5          3D                             0

 63 68  0  0  1  0  0  0  0  0999 V2000
   -8.3350   -4.1880  -23.4480 C   0  0  0  0  0  0  0  0  0  0  0  0
   -8.5570   -2.9830  -22.5520 C   0  0  1  0  0  0  0  0  0  0  0  0
   -7.4040   -2.7770  -21.5650 C   0  0  0  0  0  0  0  0  0  0  0  0
   -7.4730   -1.3650  -21.2540 N   0  0  0  0  0  0  0  0  0  0  0  0
   -6.6910   -0.7730  -20.2290 C   0  0  0  0  0  0  0  0  0  0  0  0
   -7.0100   -1.0270  -18.9190 C   0  0  0  0  0  0  0  0  0  0  0  0
   -6.3440   -0.5340  -17.8470 N   0  0  0  0  0  0  0  0  0  0  0  0
   -5.2980    0.2210  -18.0880 C   0  0  0  0  0  0  0  0  0  0  0  0
   -4.8260    0.5320  -19.3950 C   0  0  0  0  0  0  0  0  0  0  0  0
   -3.6670    1.3300  -19.5920 C   0  0  0  0  0  0  0  0  0  0  0  0
   -3.2100    1.5900  -20.8540 C   0  0  0  0  0  0  0  0  0  0  0  0
   -3.8910    1.0670  -21.9760 C   0  0  0  0  0  0  0  0  0  0  0  0
   -5.0200    0.3030  -21.8120 C   0  0  0  0  0  0  0  0  0  0  0  0
   -5.5280    0.0210  -20.5120 C   0  0  0  0  0  0  0  0  0  0  0  0
   -5.5400   -0.0850  -22.6850 H   0  0  0  0  0  0  0  0  0  0  0  0
   -3.5200    1.2790  -22.9740 H   0  0  0  0  0  0  0  0  0  0  0  0
   -2.3250    2.2050  -21.0030 H   0  0  0  0  0  0  0  0  0  0  0  0
   -3.1630    1.7340  -18.7180 H   0  0  0  0  0  0  0  0  0  0  0  0
   -4.7590    0.6180  -17.2270 H   0  0  0  0  0  0  0  0  0  0  0  0
   -7.8690   -1.6590  -18.6940 H   0  0  0  0  0  0  0  0  0  0  0  0
   -8.2230   -0.6370  -22.1540 C   0  0  0  0  0  0  0  0  0  0  0  0
   -8.3740    0.5650  -22.0940 O   0  0  0  0  0  0  0  0  0  0  0  0
   -8.7680   -1.5920  -23.2440 C   0  0  1  0  0  0  0  0  0  0  0  0
   -7.9030   -1.3540  -24.5050 C   0  0  0  0  0  0  0  0  0  0  0  0
   -8.5160   -1.7820  -25.7590 N   0  0  0  0  0  0  0  0  0  0  0  0
   -7.6300   -2.1080  -26.8730 C   0  0  0  0  0  0  0  0  0  0  0  0
   -7.5330   -3.6140  -27.1170 C   0  0  0  0  0  0  0  0  0  0  0  0
   -6.5620   -4.2560  -26.7460 O   0  0  0  0  0  0  0  0  0  0  0  0
   -8.6090   -4.1570  -27.7570 N   0  0  0  0  0  0  0  0  0  0  0  0
   -8.8860   -5.5820  -27.7940 C   0  0  0  0  0  0  0  0  0  0  0  0
   -9.7680   -6.0110  -26.7090 C   0  0  0  0  0  0  0  0  0  0  0  0
   -9.2110   -5.9090  -25.4510 F   0  0  0  0  0  0  0  0  0  0  0  0
  -10.6940   -6.9920  -26.7040 C   0  0  0  0  0  0  0  0  0  0  0  0
  -10.8970   -6.9860  -26.9470 C   0  0  0  0  0  0  0  0  0  0  0  0
  -11.2820   -6.8340  -28.4640 H   0  0  0  0  0  0  0  0  0  0  0  0
  -10.5880   -8.2470  -26.9390 H   0  0  0  0  0  0  0  0  0  0  0  0
  -12.0420   -6.5090  -26.9160 H   0  0  0  0  0  0  0  0  0  0  0  0
  -10.8110   -7.2640  -25.5560 H   0  0  0  0  0  0  0  0  0  0  0  0
   -9.2820   -5.8180  -28.7900 H   0  0  0  0  0  0  0  0  0  0  0  0
   -7.9460   -6.1150  -27.6520 H   0  0  0  0  0  0  0  0  0  0  0  0
   -9.4050   -3.5430  -27.8860 H   0  0  0  0  0  0  0  0  0  0  0  0
   -8.0030   -1.6020  -27.7670 H   0  0  0  0  0  0  0  0  0  0  0  0
   -6.6320   -1.7280  -26.6380 H   0  0  0  0  0  0  0  0  0  0  0  0
   -9.8500   -1.6920  -26.0160 C   0  0  0  0  0  0  0  0  0  0  0  0
  -10.3170   -1.9370  -27.1330 O   0  0  0  0  0  0  0  0  0  0  0  0
  -10.7170   -1.3030  -24.8720 C   0  0  0  0  0  0  0  0  0  0  0  0
  -12.0560   -1.0130  -25.1310 C   0  0  0  0  0  0  0  0  0  0  0  0
  -12.9340   -0.7720  -24.0950 C   0  0  0  0  0  0  0  0  0  0  0  0
  -12.4450   -0.8460  -22.7970 C   0  0  0  0  0  0  0  0  0  0  0  0
  -13.3110   -0.6700  -21.7890 F   0  0  0  0  0  0  0  0  0  0  0  0
  -11.1180   -1.1020  -22.5140 C   0  0  0  0  0  0  0  0  0  0  0  0
  -10.2190   -1.3070  -23.5650 C   0  0  0  0  0  0  0  0  0  0  0  0
  -10.7870   -1.1370  -21.4820 H   0  0  0  0  0  0  0  0  0  0  0  0
  -13.9840   -0.5530  -24.2600 H   0  0  0  0  0  0  0  0  0  0  0  0
  -12.3910   -1.0140  -26.1630 H   0  0  0  0  0  0  0  0  0  0  0  0
   -7.6630   -0.2820  -24.5550 H   0  0  0  0  0  0  0  0  0  0  0  0
   -6.9570   -1.8990  -24.4000 H   0  0  0  0  0  0  0  0  0  0  0  0
   -6.4360   -3.0380  -22.0210 H   0  0  0  0  0  0  0  0  0  0  0  0
   -7.5140   -3.3830  -20.6580 H   0  0  0  0  0  0  0  0  0  0  0  0
   -9.4700   -3.1600  -21.9640 H   0  0  0  0  0  0  0  0  0  0  0  0
   -9.2170   -4.3920  -24.0540 H   0  0  0  0  0  0  0  0  0  0  0  0
   -8.1290   -5.0760  -22.8380 H   0  0  0  0  0  0  0  0  0  0  0  0
   -7.4830   -4.0580  -24.1250 H   0  0  0  0  0  0  0  0  0  0  0  0
  1  2  1  0  0  0  0
  1 61  1  0  0  0  0
  1 62  1  0  0  0  0
  1 63  1  0  0  0  0
  2  3  1  0  0  0  0
  2 23  1  0  0  0  0
  2 60  1  0  0  0  0
  3  4  1  0  0  0  0
  3 58  1  0  0  0  0
  3 59  1  0  0  0  0
  4  5  1  0  0  0  0
  4 21  1  0  0  0  0
  5  6  2  0  0  0  0
  5 14  1  0  0  0  0
  6  7  1  0  0  0  0
  6 20  1  0  0  0  0
  7  8  2  0  0  0  0
  8  9  1  0  0  0  0
  8 19  1  0  0  0  0
  9 10  1  0  0  0  0
  9 14  2  0  0  0  0
 10 11  2  0  0  0  0
 10 18  1  0  0  0  0
 11 12  1  0  0  0  0
 11 17  1  0  0  0  0
 12 13  2  0  0  0  0
 12 16  1  0  0  0  0
 13 14  1  0  0  0  0
 13 15  1  0  0  0  0
 21 22  2  0  0  0  0
 21 23  1  0  0  0  0
 23 24  1  0  0  0  0
 23 52  1  0  0  0  0
 24 25  1  0  0  0  0
 24 56  1  0  0  0  0
 24 57  1  0  0  0  0
 25 26  1  0  0  0  0
 25 44  1  0  0  0  0
 26 27  1  0  0  0  0
 26 42  1  0  0  0  0
 26 43  1  0  0  0  0
 27 28  2  0  0  0  0
 27 29  1  0  0  0  0
 29 30  1  0  0  0  0
 29 41  1  0  0  0  0
 30 31  1  0  0  0  0
 30 39  1  0  0  0  0
 30 40  1  0  0  0  0
 31 32  1  0  0  0  0
 31 33  1  0  0  0  0
 31 34  1  0  0  0  0
 33 34  1  0  0  0  0
 33 37  1  0  0  0  0
 33 38  1  0  0  0  0
 34 35  1  0  0  0  0
 34 36  1  0  0  0  0
 44 45  2  0  0  0  0
 44 46  1  0  0  0  0
 46 47  2  0  0  0  0
 46 52  1  0  0  0  0
 47 48  1  0  0  0  0
 47 55  1  0  0  0  0
 48 49  2  0  0  0  0
 48 54  1  0  0  0  0
 49 50  1  0  0  0  0
 49 51  1  0  0  0  0
 51 52  2  0  0  0  0
 51 53  1  0  0  0  0
M  END
$$$$
mol85_score_22.9543
  PyMOL2.5          3D                             0

 57 62  0  0  1  0  0  0  0  0999 V2000
   -6.4300    3.5320  -22.9180 C   0  0  0  0  0  0  0  0  0  0  0  0
   -6.8060    2.5000  -23.8660 N   0  0  0  0  0  0  0  0  0  0  0  0
   -8.0930    2.5370  -24.3080 C   0  0  0  0  0  0  0  0  0  0  0  0
   -8.8390    3.4600  -24.0350 O   0  0  0  0  0  0  0  0  0  0  0  0
   -8.5350    1.4280  -25.2560 C   0  0  0  0  0  0  0  0  0  0  0  0
   -9.3030    0.3620  -24.6380 N   0  0  0  0  0  0  0  0  0  0  0  0
   -8.7500   -0.9760  -24.4570 C   0  0  0  0  0  0  0  0  0  0  0  0
   -8.9960   -1.4800  -23.0080 C   0  0  2  0  0  0  0  0  0  0  0  0
   -8.2500   -0.5490  -22.0140 C   0  0  0  0  0  0  0  0  0  0  0  0
   -8.3860    0.6510  -21.8770 O   0  0  0  0  0  0  0  0  0  0  0  0
   -7.3670   -1.3130  -21.2780 N   0  0  0  0  0  0  0  0  0  0  0  0
   -6.6080   -0.7670  -20.2190 C   0  0  0  0  0  0  0  0  0  0  0  0
   -6.9010   -1.0770  -18.9170 C   0  0  0  0  0  0  0  0  0  0  0  0
   -6.2270   -0.5960  -17.8460 N   0  0  0  0  0  0  0  0  0  0  0  0
   -5.2090    0.1970  -18.0880 C   0  0  0  0  0  0  0  0  0  0  0  0
   -4.7810    0.5780  -19.3910 C   0  0  0  0  0  0  0  0  0  0  0  0
   -3.6470    1.4070  -19.6010 C   0  0  0  0  0  0  0  0  0  0  0  0
   -3.2530    1.7350  -20.8710 C   0  0  0  0  0  0  0  0  0  0  0  0
   -3.9660    1.2460  -21.9870 C   0  0  0  0  0  0  0  0  0  0  0  0
   -5.0530    0.4230  -21.8080 C   0  0  0  0  0  0  0  0  0  0  0  0
   -5.5020    0.0870  -20.5020 C   0  0  0  0  0  0  0  0  0  0  0  0
   -5.5400   -0.0230  -22.6690 H   0  0  0  0  0  0  0  0  0  0  0  0
   -3.6380    1.5160  -22.9880 H   0  0  0  0  0  0  0  0  0  0  0  0
   -2.3790    2.3570  -21.0280 H   0  0  0  0  0  0  0  0  0  0  0  0
   -3.1020    1.7620  -18.7320 H   0  0  0  0  0  0  0  0  0  0  0  0
   -4.6640    0.5780  -17.2250 H   0  0  0  0  0  0  0  0  0  0  0  0
   -7.7420   -1.7320  -18.6910 H   0  0  0  0  0  0  0  0  0  0  0  0
   -7.4950   -2.7370  -21.4730 C   0  0  0  0  0  0  0  0  0  0  0  0
   -8.3610   -2.8570  -22.7180 C   0  0  0  0  0  0  0  0  0  0  0  0
   -7.9020   -3.7860  -23.8150 C   0  0  0  0  0  0  0  0  0  0  0  0
   -9.0960   -4.1390  -22.9850 C   0  0  0  0  0  0  0  0  0  0  0  0
  -10.0720   -4.0430  -23.4500 H   0  0  0  0  0  0  0  0  0  0  0  0
   -9.0180   -4.9380  -22.2470 H   0  0  0  0  0  0  0  0  0  0  0  0
   -8.0700   -3.4950  -24.8480 H   0  0  0  0  0  0  0  0  0  0  0  0
   -6.9920   -4.3570  -23.6530 H   0  0  0  0  0  0  0  0  0  0  0  0
   -6.5100   -3.2080  -21.5950 H   0  0  0  0  0  0  0  0  0  0  0  0
   -8.0010   -3.1950  -20.6190 H   0  0  0  0  0  0  0  0  0  0  0  0
  -10.5070   -1.3920  -22.7890 C   0  0  0  0  0  0  0  0  0  0  0  0
  -11.1870   -2.2710  -21.9420 C   0  0  0  0  0  0  0  0  0  0  0  0
  -12.5510   -2.1570  -21.7640 C   0  0  0  0  0  0  0  0  0  0  0  0
  -13.3400   -3.2270  -20.6540 Cl  0  0  0  0  0  0  0  0  0  0  0  0
  -13.2980   -1.1580  -22.3780 C   0  0  0  0  0  0  0  0  0  0  0  0
  -12.6320   -0.2550  -23.1820 C   0  0  0  0  0  0  0  0  0  0  0  0
  -11.2580   -0.3740  -23.3950 C   0  0  0  0  0  0  0  0  0  0  0  0
  -10.6230    0.6020  -24.3440 C   0  0  0  0  0  0  0  0  0  0  0  0
  -11.2700    1.5170  -24.8300 O   0  0  0  0  0  0  0  0  0  0  0  0
  -13.1390    0.5810  -23.6530 H   0  0  0  0  0  0  0  0  0  0  0  0
  -14.3700   -1.0980  -22.2220 H   0  0  0  0  0  0  0  0  0  0  0  0
  -10.6770   -3.0680  -21.4200 H   0  0  0  0  0  0  0  0  0  0  0  0
   -7.6740   -0.9560  -24.6530 H   0  0  0  0  0  0  0  0  0  0  0  0
   -9.2320   -1.6790  -25.1590 H   0  0  0  0  0  0  0  0  0  0  0  0
   -7.6890    0.9880  -25.7950 H   0  0  0  0  0  0  0  0  0  0  0  0
   -9.2000    1.9620  -25.9310 H   0  0  0  0  0  0  0  0  0  0  0  0
   -6.3460    1.6030  -23.8130 H   0  0  0  0  0  0  0  0  0  0  0  0
   -5.4190    3.3530  -22.5540 H   0  0  0  0  0  0  0  0  0  0  0  0
   -7.1350    3.5350  -22.0810 H   0  0  0  0  0  0  0  0  0  0  0  0
   -6.4830    4.5080  -23.4100 H   0  0  0  0  0  0  0  0  0  0  0  0
  1  2  1  0  0  0  0
  1 55  1  0  0  0  0
  1 56  1  0  0  0  0
  1 57  1  0  0  0  0
  2  3  1  0  0  0  0
  2 54  1  0  0  0  0
  3  4  2  0  0  0  0
  3  5  1  0  0  0  0
  5  6  1  0  0  0  0
  5 52  1  0  0  0  0
  5 53  1  0  0  0  0
  6  7  1  0  0  0  0
  6 45  1  0  0  0  0
  7  8  1  0  0  0  0
  7 50  1  0  0  0  0
  7 51  1  0  0  0  0
  8  9  1  0  0  0  0
  8 29  1  0  0  0  0
  8 38  1  0  0  0  0
  9 10  2  0  0  0  0
  9 11  1  0  0  0  0
 11 12  1  0  0  0  0
 11 28  1  0  0  0  0
 12 13  2  0  0  0  0
 12 21  1  0  0  0  0
 13 14  1  0  0  0  0
 13 27  1  0  0  0  0
 14 15  2  0  0  0  0
 15 16  1  0  0  0  0
 15 26  1  0  0  0  0
 16 17  1  0  0  0  0
 16 21  2  0  0  0  0
 17 18  2  0  0  0  0
 17 25  1  0  0  0  0
 18 19  1  0  0  0  0
 18 24  1  0  0  0  0
 19 20  2  0  0  0  0
 19 23  1  0  0  0  0
 20 21  1  0  0  0  0
 20 22  1  0  0  0  0
 28 29  1  0  0  0  0
 28 36  1  0  0  0  0
 28 37  1  0  0  0  0
 29 30  1  0  0  0  0
 29 31  1  0  0  0  0
 30 31  1  0  0  0  0
 30 34  1  0  0  0  0
 30 35  1  0  0  0  0
 31 32  1  0  0  0  0
 31 33  1  0  0  0  0
 38 39  1  0  0  0  0
 38 44  2  0  0  0  0
 39 40  2  0  0  0  0
 39 49  1  0  0  0  0
 40 41  1  0  0  0  0
 40 42  1  0  0  0  0
 42 43  2  0  0  0  0
 42 48  1  0  0  0  0
 43 44  1  0  0  0  0
 43 47  1  0  0  0  0
 44 45  1  0  0  0  0
 45 46  2  0  0  0  0
M  END
$$$$
mol86_score_16.6886
  PyMOL2.5          3D                             0

 43 45  0  0  1  0  0  0  0  0999 V2000
  -13.0150   -1.8130  -24.0440 C   0  0  0  0  0  0  0  0  0  0  0  0
  -11.6650   -1.2330  -24.4780 C   0  0  1  0  0  0  0  0  0  0  0  0
  -11.3520    0.1060  -23.8090 C   0  0  0  0  0  0  0  0  0  0  0  0
  -10.8580   -0.0680  -22.3820 C   0  0  0  0  0  0  0  0  0  0  0  0
   -9.6980   -0.9490  -22.3030 N   0  0  0  0  0  0  0  0  0  0  0  0
   -8.5190   -0.4480  -21.7840 C   0  0  0  0  0  0  0  0  0  0  0  0
   -8.3210    0.7500  -21.7020 O   0  0  0  0  0  0  0  0  0  0  0  0
   -7.4550   -1.4400  -21.2560 C   0  0  0  0  0  0  0  0  0  0  0  0
   -6.5780   -0.8330  -20.1810 C   0  0  0  0  0  0  0  0  0  0  0  0
   -6.8750   -1.0410  -18.8600 C   0  0  0  0  0  0  0  0  0  0  0  0
   -6.1950   -0.5330  -17.7980 N   0  0  0  0  0  0  0  0  0  0  0  0
   -5.1580    0.2230  -18.0650 C   0  0  0  0  0  0  0  0  0  0  0  0
   -4.7240    0.5350  -19.3800 C   0  0  0  0  0  0  0  0  0  0  0  0
   -3.5990    1.3660  -19.6190 C   0  0  0  0  0  0  0  0  0  0  0  0
   -3.2100    1.6620  -20.8980 C   0  0  0  0  0  0  0  0  0  0  0  0
   -3.9340    1.1360  -21.9910 C   0  0  0  0  0  0  0  0  0  0  0  0
   -5.0260    0.3280  -21.7860 C   0  0  0  0  0  0  0  0  0  0  0  0
   -5.4540    0.0010  -20.4730 C   0  0  0  0  0  0  0  0  0  0  0  0
   -5.5880   -0.0460  -22.6350 H   0  0  0  0  0  0  0  0  0  0  0  0
   -3.6250    1.3820  -23.0040 H   0  0  0  0  0  0  0  0  0  0  0  0
   -2.3530    2.3060  -21.0820 H   0  0  0  0  0  0  0  0  0  0  0  0
   -3.0600    1.7740  -18.7660 H   0  0  0  0  0  0  0  0  0  0  0  0
   -4.6040    0.6270  -17.2150 H   0  0  0  0  0  0  0  0  0  0  0  0
   -7.7260   -1.6600  -18.5830 H   0  0  0  0  0  0  0  0  0  0  0  0
   -7.9530   -2.3330  -20.8500 H   0  0  0  0  0  0  0  0  0  0  0  0
   -6.8400   -1.7850  -22.0970 H   0  0  0  0  0  0  0  0  0  0  0  0
   -9.8760   -2.2800  -22.8780 C   0  0  1  0  0  0  0  0  0  0  0  0
  -10.6350   -3.2220  -21.9440 C   0  0  0  0  0  0  0  0  0  0  0  0
  -10.7960   -4.1970  -22.4150 H   0  0  0  0  0  0  0  0  0  0  0  0
  -10.0520   -3.3930  -21.0320 H   0  0  0  0  0  0  0  0  0  0  0  0
  -11.6100   -2.8250  -21.6530 H   0  0  0  0  0  0  0  0  0  0  0  0
  -10.4800   -2.1870  -24.2940 C   0  0  0  0  0  0  0  0  0  0  0  0
   -9.6800   -1.8850  -24.9800 H   0  0  0  0  0  0  0  0  0  0  0  0
  -10.7760   -3.1930  -24.6090 H   0  0  0  0  0  0  0  0  0  0  0  0
   -8.8750   -2.6980  -23.0100 H   0  0  0  0  0  0  0  0  0  0  0  0
  -11.6820   -0.4860  -21.7980 H   0  0  0  0  0  0  0  0  0  0  0  0
  -10.5860    0.8920  -21.9440 H   0  0  0  0  0  0  0  0  0  0  0  0
  -12.2460    0.7400  -23.8160 H   0  0  0  0  0  0  0  0  0  0  0  0
  -10.5790    0.6390  -24.3670 H   0  0  0  0  0  0  0  0  0  0  0  0
  -11.7510   -1.0460  -25.5560 H   0  0  0  0  0  0  0  0  0  0  0  0
  -13.1220   -1.8950  -22.9590 H   0  0  0  0  0  0  0  0  0  0  0  0
  -13.8380   -1.1800  -24.3990 H   0  0  0  0  0  0  0  0  0  0  0  0
  -13.1670   -2.8140  -24.4610 H   0  0  0  0  0  0  0  0  0  0  0  0
  1  2  1  0  0  0  0
  1 41  1  0  0  0  0
  1 42  1  0  0  0  0
  1 43  1  0  0  0  0
  2  3  1  0  0  0  0
  2 32  1  0  0  0  0
  2 40  1  0  0  0  0
  3  4  1  0  0  0  0
  3 38  1  0  0  0  0
  3 39  1  0  0  0  0
  4  5  1  0  0  0  0
  4 36  1  0  0  0  0
  4 37  1  0  0  0  0
  5  6  1  0  0  0  0
  5 27  1  0  0  0  0
  6  7  2  0  0  0  0
  6  8  1  0  0  0  0
  8  9  1  0  0  0  0
  8 25  1  0  0  0  0
  8 26  1  0  0  0  0
  9 10  2  0  0  0  0
  9 18  1  0  0  0  0
 10 11  1  0  0  0  0
 10 24  1  0  0  0  0
 11 12  2  0  0  0  0
 12 13  1  0  0  0  0
 12 23  1  0  0  0  0
 13 14  1  0  0  0  0
 13 18  2  0  0  0  0
 14 15  2  0  0  0  0
 14 22  1  0  0  0  0
 15 16  1  0  0  0  0
 15 21  1  0  0  0  0
 16 17  2  0  0  0  0
 16 20  1  0  0  0  0
 17 18  1  0  0  0  0
 17 19  1  0  0  0  0
 27 28  1  0  0  0  0
 27 32  1  0  0  0  0
 27 35  1  0  0  0  0
 28 29  1  0  0  0  0
 28 30  1  0  0  0  0
 28 31  1  0  0  0  0
 32 33  1  0  0  0  0
 32 34  1  0  0  0  0
M  END
$$$$
mol87_score_22.2989
  PyMOL2.5          3D                             0

 59 64  0  0  1  0  0  0  0  0999 V2000
   -8.2670   -4.0820  -23.6820 C   0  0  0  0  0  0  0  0  0  0  0  0
   -8.4810   -3.1280  -22.5070 C   0  0  1  0  0  0  0  0  0  0  0  0
   -7.1520   -2.4890  -22.0600 C   0  0  0  0  0  0  0  0  0  0  0  0
   -7.5730   -1.3170  -21.3180 N   0  0  0  0  0  0  0  0  0  0  0  0
   -6.8330   -0.7560  -20.2490 C   0  0  0  0  0  0  0  0  0  0  0  0
   -7.1350   -1.0850  -18.9520 C   0  0  0  0  0  0  0  0  0  0  0  0
   -6.4100   -0.6920  -17.8750 N   0  0  0  0  0  0  0  0  0  0  0  0
   -5.3680    0.0750  -18.0780 C   0  0  0  0  0  0  0  0  0  0  0  0
   -4.9520    0.5100  -19.3670 C   0  0  0  0  0  0  0  0  0  0  0  0
   -3.8250    1.3570  -19.5450 C   0  0  0  0  0  0  0  0  0  0  0  0
   -3.4600    1.7650  -20.7990 C   0  0  0  0  0  0  0  0  0  0  0  0
   -4.1920    1.3310  -21.9280 C   0  0  0  0  0  0  0  0  0  0  0  0
   -5.2810    0.5070  -21.7800 C   0  0  0  0  0  0  0  0  0  0  0  0
   -5.6960    0.0800  -20.4920 C   0  0  0  0  0  0  0  0  0  0  0  0
   -5.8270    0.1570  -22.6520 H   0  0  0  0  0  0  0  0  0  0  0  0
   -3.8690    1.6340  -22.9210 H   0  0  0  0  0  0  0  0  0  0  0  0
   -2.6060    2.4210  -20.9360 H   0  0  0  0  0  0  0  0  0  0  0  0
   -3.2730    1.6810  -18.6660 H   0  0  0  0  0  0  0  0  0  0  0  0
   -4.7920    0.3880  -17.2030 H   0  0  0  0  0  0  0  0  0  0  0  0
   -7.9910   -1.7190  -18.7300 H   0  0  0  0  0  0  0  0  0  0  0  0
   -8.8750   -0.9620  -21.5790 C   0  0  0  0  0  0  0  0  0  0  0  0
   -9.4730   -0.0620  -21.0240 O   0  0  0  0  0  0  0  0  0  0  0  0
   -9.4240   -1.8960  -22.6970 C   0  0  1  0  0  0  0  0  0  0  0  0
   -9.1950   -1.2390  -24.0760 C   0  0  0  0  0  0  0  0  0  0  0  0
  -10.0390   -0.0800  -24.2710 N   0  0  0  0  0  0  0  0  0  0  0  0
   -9.4780    1.0590  -24.9600 C   0  0  0  0  0  0  0  0  0  0  0  0
   -8.6490    1.9280  -24.0610 C   0  0  0  0  0  0  0  0  0  0  0  0
   -8.9900    2.6110  -22.9150 C   0  0  0  0  0  0  0  0  0  0  0  0
   -7.8410    3.3710  -22.5950 C   0  0  0  0  0  0  0  0  0  0  0  0
   -6.8680    3.1590  -23.4750 N   0  0  0  0  0  0  0  0  0  0  0  0
   -7.3700    2.2730  -24.3500 N   0  0  0  0  0  0  0  0  0  0  0  0
   -6.5120    1.6400  -25.3300 C   0  0  0  0  0  0  0  0  0  0  0  0
   -5.4810    1.8930  -25.0820 H   0  0  0  0  0  0  0  0  0  0  0  0
   -6.6290    0.5500  -25.2800 H   0  0  0  0  0  0  0  0  0  0  0  0
   -6.7520    1.9840  -26.3420 H   0  0  0  0  0  0  0  0  0  0  0  0
   -7.6680    4.0440  -21.7580 H   0  0  0  0  0  0  0  0  0  0  0  0
   -9.9180    2.5200  -22.3660 H   0  0  0  0  0  0  0  0  0  0  0  0
  -10.3390    1.6240  -25.3190 H   0  0  0  0  0  0  0  0  0  0  0  0
   -8.9040    0.7130  -25.8310 H   0  0  0  0  0  0  0  0  0  0  0  0
  -11.3830   -0.1260  -24.0430 C   0  0  0  0  0  0  0  0  0  0  0  0
  -12.1720    0.6710  -24.5390 O   0  0  0  0  0  0  0  0  0  0  0  0
  -11.8290   -1.1670  -23.0740 C   0  0  0  0  0  0  0  0  0  0  0  0
  -13.1550   -1.0850  -22.6450 C   0  0  0  0  0  0  0  0  0  0  0  0
  -13.6280   -1.9310  -21.6680 C   0  0  0  0  0  0  0  0  0  0  0  0
  -12.7440   -2.8870  -21.1850 C   0  0  0  0  0  0  0  0  0  0  0  0
  -13.1690   -3.6360  -20.1570 F   0  0  0  0  0  0  0  0  0  0  0  0
  -11.4400   -3.0340  -21.6310 C   0  0  0  0  0  0  0  0  0  0  0  0
  -10.9210   -2.0840  -22.5150 C   0  0  0  0  0  0  0  0  0  0  0  0
  -10.8300   -3.8370  -21.2230 H   0  0  0  0  0  0  0  0  0  0  0  0
  -14.6310   -1.8510  -21.2490 H   0  0  0  0  0  0  0  0  0  0  0  0
  -13.7810   -0.3180  -23.0850 H   0  0  0  0  0  0  0  0  0  0  0  0
   -9.3810   -1.9850  -24.8610 H   0  0  0  0  0  0  0  0  0  0  0  0
   -8.1570   -0.9140  -24.1730 H   0  0  0  0  0  0  0  0  0  0  0  0
   -6.5380   -3.1380  -21.4300 H   0  0  0  0  0  0  0  0  0  0  0  0
   -6.5500   -2.2070  -22.9400 H   0  0  0  0  0  0  0  0  0  0  0  0
   -8.8610   -3.7020  -21.6520 H   0  0  0  0  0  0  0  0  0  0  0  0
   -7.8050   -3.5640  -24.5320 H   0  0  0  0  0  0  0  0  0  0  0  0
   -9.2010   -4.5360  -24.0290 H   0  0  0  0  0  0  0  0  0  0  0  0
   -7.5840   -4.8920  -23.3920 H   0  0  0  0  0  0  0  0  0  0  0  0
  1  2  1  0  0  0  0
  1 57  1  0  0  0  0
  1 58  1  0  0  0  0
  1 59  1  0  0  0  0
  2  3  1  0  0  0  0
  2 23  1  0  0  0  0
  2 56  1  0  0  0  0
  3  4  1  0  0  0  0
  3 54  1  0  0  0  0
  3 55  1  0  0  0  0
  4  5  1  0  0  0  0
  4 21  1  0  0  0  0
  5  6  2  0  0  0  0
  5 14  1  0  0  0  0
  6  7  1  0  0  0  0
  6 20  1  0  0  0  0
  7  8  2  0  0  0  0
  8  9  1  0  0  0  0
  8 19  1  0  0  0  0
  9 10  1  0  0  0  0
  9 14  2  0  0  0  0
 10 11  2  0  0  0  0
 10 18  1  0  0  0  0
 11 12  1  0  0  0  0
 11 17  1  0  0  0  0
 12 13  2  0  0  0  0
 12 16  1  0  0  0  0
 13 14  1  0  0  0  0
 13 15  1  0  0  0  0
 21 22  2  0  0  0  0
 21 23  1  0  0  0  0
 23 24  1  0  0  0  0
 23 48  1  0  0  0  0
 24 25  1  0  0  0  0
 24 52  1  0  0  0  0
 24 53  1  0  0  0  0
 25 26  1  0  0  0  0
 25 40  1  0  0  0  0
 26 27  1  0  0  0  0
 26 38  1  0  0  0  0
 26 39  1  0  0  0  0
 27 28  2  0  0  0  0
 27 31  1  0  0  0  0
 28 29  1  0  0  0  0
 28 37  1  0  0  0  0
 29 30  2  0  0  0  0
 29 36  1  0  0  0  0
 30 31  1  0  0  0  0
 31 32  1  0  0  0  0
 32 33  1  0  0  0  0
 32 34  1  0  0  0  0
 32 35  1  0  0  0  0
 40 41  2  0  0  0  0
 40 42  1  0  0  0  0
 42 43  2  0  0  0  0
 42 48  1  0  0  0  0
 43 44  1  0  0  0  0
 43 51  1  0  0  0  0
 44 45  2  0  0  0  0
 44 50  1  0  0  0  0
 45 46  1  0  0  0  0
 45 47  1  0  0  0  0
 47 48  2  0  0  0  0
 47 49  1  0  0  0  0
M  END
$$$$
mol88_score_18.2416
  PyMOL2.5          3D                             0

 40 42  0  0  0  0  0  0  0  0999 V2000
   -8.4690    0.7570  -21.5550 O   0  0  0  0  0  0  0  0  0  0  0  0
   -8.5720   -0.4400  -21.7670 C   0  0  0  0  0  0  0  0  0  0  0  0
   -7.4900   -1.4140  -21.2830 C   0  0  0  0  0  0  0  0  0  0  0  0
   -6.6120   -0.8170  -20.2110 C   0  0  0  0  0  0  0  0  0  0  0  0
   -6.9210   -1.0110  -18.8900 C   0  0  0  0  0  0  0  0  0  0  0  0
   -6.2510   -0.4820  -17.8340 N   0  0  0  0  0  0  0  0  0  0  0  0
   -5.1940    0.2450  -18.0980 C   0  0  0  0  0  0  0  0  0  0  0  0
   -4.7470    0.5300  -19.4130 C   0  0  0  0  0  0  0  0  0  0  0  0
   -3.6100    1.3460  -19.6420 C   0  0  0  0  0  0  0  0  0  0  0  0
   -3.2170    1.6420  -20.9200 C   0  0  0  0  0  0  0  0  0  0  0  0
   -3.9410    1.1270  -22.0180 C   0  0  0  0  0  0  0  0  0  0  0  0
   -5.0460    0.3310  -21.8180 C   0  0  0  0  0  0  0  0  0  0  0  0
   -5.4790    0.0050  -20.5050 C   0  0  0  0  0  0  0  0  0  0  0  0
   -5.6130   -0.0330  -22.6680 H   0  0  0  0  0  0  0  0  0  0  0  0
   -3.6260    1.3760  -23.0290 H   0  0  0  0  0  0  0  0  0  0  0  0
   -2.3630    2.2930  -21.0930 H   0  0  0  0  0  0  0  0  0  0  0  0
   -3.0830    1.7460  -18.7790 H   0  0  0  0  0  0  0  0  0  0  0  0
   -4.6300    0.6530  -17.2550 H   0  0  0  0  0  0  0  0  0  0  0  0
   -7.7650   -1.6470  -18.6110 H   0  0  0  0  0  0  0  0  0  0  0  0
   -6.9050   -1.7580  -22.1470 H   0  0  0  0  0  0  0  0  0  0  0  0
   -7.9940   -2.2990  -20.8770 H   0  0  0  0  0  0  0  0  0  0  0  0
   -9.6620   -0.9720  -22.4050 N   0  0  0  0  0  0  0  0  0  0  0  0
  -10.7690   -0.0720  -22.7060 C   0  0  0  0  0  0  0  0  0  0  0  0
  -12.0750   -0.8370  -22.6540 C   0  0  0  0  0  0  0  0  0  0  0  0
  -12.1620   -1.8750  -23.7770 C   0  0  0  0  0  0  0  0  0  0  0  0
  -13.1580   -2.9380  -23.3570 C   0  0  0  0  0  0  0  0  0  0  0  0
  -12.7080   -3.5430  -22.2140 F   0  0  0  0  0  0  0  0  0  0  0  0
  -14.3650   -2.3690  -23.0640 F   0  0  0  0  0  0  0  0  0  0  0  0
  -13.3330   -3.7330  -24.0890 H   0  0  0  0  0  0  0  0  0  0  0  0
  -10.7630   -2.4630  -24.0390 C   0  0  0  0  0  0  0  0  0  0  0  0
   -9.8390   -2.3650  -22.8180 C   0  0  0  0  0  0  0  0  0  0  0  0
   -8.8650   -2.7870  -23.0780 H   0  0  0  0  0  0  0  0  0  0  0  0
  -10.2490   -2.9580  -21.9950 H   0  0  0  0  0  0  0  0  0  0  0  0
  -10.8380   -3.5050  -24.3690 H   0  0  0  0  0  0  0  0  0  0  0  0
  -10.2910   -1.9090  -24.8560 H   0  0  0  0  0  0  0  0  0  0  0  0
  -12.5580   -1.4250  -24.6960 H   0  0  0  0  0  0  0  0  0  0  0  0
  -12.0830   -1.3880  -21.7180 H   0  0  0  0  0  0  0  0  0  0  0  0
  -12.9570   -0.1940  -22.6570 H   0  0  0  0  0  0  0  0  0  0  0  0
  -10.7340    0.7370  -21.9790 H   0  0  0  0  0  0  0  0  0  0  0  0
  -10.6240    0.3650  -23.6990 H   0  0  0  0  0  0  0  0  0  0  0  0
  1  2  2  0  0  0  0
  2  3  1  0  0  0  0
  2 22  1  0  0  0  0
  3  4  1  0  0  0  0
  3 20  1  0  0  0  0
  3 21  1  0  0  0  0
  4  5  2  0  0  0  0
  4 13  1  0  0  0  0
  5  6  1  0  0  0  0
  5 19  1  0  0  0  0
  6  7  2  0  0  0  0
  7  8  1  0  0  0  0
  7 18  1  0  0  0  0
  8  9  1  0  0  0  0
  8 13  2  0  0  0  0
  9 10  2  0  0  0  0
  9 17  1  0  0  0  0
 10 11  1  0  0  0  0
 10 16  1  0  0  0  0
 11 12  2  0  0  0  0
 11 15  1  0  0  0  0
 12 13  1  0  0  0  0
 12 14  1  0  0  0  0
 22 23  1  0  0  0  0
 22 31  1  0  0  0  0
 23 24  1  0  0  0  0
 23 39  1  0  0  0  0
 23 40  1  0  0  0  0
 24 25  1  0  0  0  0
 24 37  1  0  0  0  0
 24 38  1  0  0  0  0
 25 26  1  0  0  0  0
 25 30  1  0  0  0  0
 25 36  1  0  0  0  0
 26 27  1  0  0  0  0
 26 28  1  0  0  0  0
 26 29  1  0  0  0  0
 30 31  1  0  0  0  0
 30 34  1  0  0  0  0
 30 35  1  0  0  0  0
 31 32  1  0  0  0  0
 31 33  1  0  0  0  0
M  END
$$$$
mol89_score_15.5546
  PyMOL2.5          3D                             0

 43 45  0  0  0  0  0  0  0  0999 V2000
  -13.0090   -1.4680  -24.7600 C   0  0  0  0  0  0  0  0  0  0  0  0
  -12.2370   -1.9750  -23.5460 C   0  0  0  0  0  0  0  0  0  0  0  0
  -13.0260   -3.1120  -22.8860 C   0  0  0  0  0  0  0  0  0  0  0  0
  -13.2080   -3.9240  -23.6010 H   0  0  0  0  0  0  0  0  0  0  0  0
  -12.4900   -3.5320  -22.0280 H   0  0  0  0  0  0  0  0  0  0  0  0
  -14.0000   -2.7530  -22.5290 H   0  0  0  0  0  0  0  0  0  0  0  0
  -10.8330   -2.4500  -23.9730 C   0  0  0  0  0  0  0  0  0  0  0  0
   -9.7890   -2.3460  -22.8550 C   0  0  0  0  0  0  0  0  0  0  0  0
   -9.6460   -0.9570  -22.4150 N   0  0  0  0  0  0  0  0  0  0  0  0
   -8.5550   -0.4280  -21.7880 C   0  0  0  0  0  0  0  0  0  0  0  0
   -8.4340    0.7670  -21.5920 O   0  0  0  0  0  0  0  0  0  0  0  0
   -7.4930   -1.4180  -21.2980 C   0  0  0  0  0  0  0  0  0  0  0  0
   -6.6220   -0.8500  -20.2140 C   0  0  0  0  0  0  0  0  0  0  0  0
   -6.9160   -1.1160  -18.9020 C   0  0  0  0  0  0  0  0  0  0  0  0
   -6.1520   -0.7640  -17.8340 N   0  0  0  0  0  0  0  0  0  0  0  0
   -5.0880   -0.0390  -18.0860 C   0  0  0  0  0  0  0  0  0  0  0  0
   -4.7180    0.4070  -19.3880 C   0  0  0  0  0  0  0  0  0  0  0  0
   -3.6190    1.2810  -19.6030 C   0  0  0  0  0  0  0  0  0  0  0  0
   -3.2480    1.6230  -20.8740 C   0  0  0  0  0  0  0  0  0  0  0  0
   -3.9630    1.1250  -21.9850 C   0  0  0  0  0  0  0  0  0  0  0  0
   -5.0650    0.3230  -21.7990 C   0  0  0  0  0  0  0  0  0  0  0  0
   -5.4820   -0.0400  -20.4890 C   0  0  0  0  0  0  0  0  0  0  0  0
   -5.6230   -0.0310  -22.6570 H   0  0  0  0  0  0  0  0  0  0  0  0
   -3.6320    1.3760  -22.9890 H   0  0  0  0  0  0  0  0  0  0  0  0
   -2.3940    2.2760  -21.0420 H   0  0  0  0  0  0  0  0  0  0  0  0
   -3.1010    1.6900  -18.7380 H   0  0  0  0  0  0  0  0  0  0  0  0
   -4.4520    0.2450  -17.2450 H   0  0  0  0  0  0  0  0  0  0  0  0
   -7.8280   -1.6680  -18.6680 H   0  0  0  0  0  0  0  0  0  0  0  0
   -8.0150   -2.2980  -20.9050 H   0  0  0  0  0  0  0  0  0  0  0  0
   -6.8970   -1.7640  -22.1530 H   0  0  0  0  0  0  0  0  0  0  0  0
  -10.7520   -0.0500  -22.6970 C   0  0  0  0  0  0  0  0  0  0  0  0
  -12.0660   -0.8070  -22.5510 C   0  0  0  0  0  0  0  0  0  0  0  0
  -12.9190   -0.1200  -22.5980 H   0  0  0  0  0  0  0  0  0  0  0  0
  -12.0470   -1.2540  -21.5650 H   0  0  0  0  0  0  0  0  0  0  0  0
  -10.6750    0.7730  -21.9860 H   0  0  0  0  0  0  0  0  0  0  0  0
  -10.6190    0.3860  -23.6960 H   0  0  0  0  0  0  0  0  0  0  0  0
   -8.8240   -2.6970  -23.2360 H   0  0  0  0  0  0  0  0  0  0  0  0
  -10.0670   -2.9960  -22.0120 H   0  0  0  0  0  0  0  0  0  0  0  0
  -10.8800   -3.4780  -24.3550 H   0  0  0  0  0  0  0  0  0  0  0  0
  -10.4890   -1.8090  -24.7930 H   0  0  0  0  0  0  0  0  0  0  0  0
  -14.0300   -1.1860  -24.4830 H   0  0  0  0  0  0  0  0  0  0  0  0
  -12.5080   -0.5800  -25.1380 H   0  0  0  0  0  0  0  0  0  0  0  0
  -13.0710   -2.2080  -25.5640 H   0  0  0  0  0  0  0  0  0  0  0  0
  1  2  1  0  0  0  0
  1 41  1  0  0  0  0
  1 42  1  0  0  0  0
  1 43  1  0  0  0  0
  2  3  1  0  0  0  0
  2  7  1  0  0  0  0
  2 32  1  0  0  0  0
  3  4  1  0  0  0  0
  3  5  1  0  0  0  0
  3  6  1  0  0  0  0
  7  8  1  0  0  0  0
  7 39  1  0  0  0  0
  7 40  1  0  0  0  0
  8  9  1  0  0  0  0
  8 37  1  0  0  0  0
  8 38  1  0  0  0  0
  9 10  1  0  0  0  0
  9 31  1  0  0  0  0
 10 11  2  0  0  0  0
 10 12  1  0  0  0  0
 12 13  1  0  0  0  0
 12 29  1  0  0  0  0
 12 30  1  0  0  0  0
 13 14  2  0  0  0  0
 13 22  1  0  0  0  0
 14 15  1  0  0  0  0
 14 28  1  0  0  0  0
 15 16  2  0  0  0  0
 16 17  1  0  0  0  0
 16 27  1  0  0  0  0
 17 18  1  0  0  0  0
 17 22  2  0  0  0  0
 18 19  2  0  0  0  0
 18 26  1  0  0  0  0
 19 20  1  0  0  0  0
 19 25  1  0  0  0  0
 20 21  2  0  0  0  0
 20 24  1  0  0  0  0
 21 22  1  0  0  0  0
 21 23  1  0  0  0  0
 31 32  1  0  0  0  0
 31 35  1  0  0  0  0
 31 36  1  0  0  0  0
 32 33  1  0  0  0  0
 32 34  1  0  0  0  0
M  END
$$$$
mol90_score_26.0556
  PyMOL2.5          3D                             0

 64 68  0  0  1  0  0  0  0  0999 V2000
   -6.8820    3.3950  -23.2090 C   0  0  0  0  0  0  0  0  0  0  0  0
   -7.5460    2.6070  -24.2240 N   0  0  0  0  0  0  0  0  0  0  0  0
   -6.9260    1.5810  -24.8380 C   0  0  0  0  0  0  0  0  0  0  0  0
   -5.7280    1.3420  -24.7280 O   0  0  0  0  0  0  0  0  0  0  0  0
   -7.8580    0.7150  -25.7010 C   0  0  0  0  0  0  0  0  0  0  0  0
   -8.8530    0.0250  -24.8890 N   0  0  0  0  0  0  0  0  0  0  0  0
   -8.5410   -1.2920  -24.3520 C   0  0  0  0  0  0  0  0  0  0  0  0
   -9.0910   -1.4960  -22.9060 C   0  0  2  0  0  0  0  0  0  0  0  0
   -8.3520   -0.5490  -21.9170 C   0  0  0  0  0  0  0  0  0  0  0  0
   -8.5220    0.6410  -21.7490 O   0  0  0  0  0  0  0  0  0  0  0  0
   -7.4320   -1.2980  -21.2190 N   0  0  0  0  0  0  0  0  0  0  0  0
   -6.6400   -0.7560  -20.1850 C   0  0  0  0  0  0  0  0  0  0  0  0
   -6.9200   -1.0750  -18.8810 C   0  0  0  0  0  0  0  0  0  0  0  0
   -6.2290   -0.6090  -17.8160 N   0  0  0  0  0  0  0  0  0  0  0  0
   -5.2120    0.1840  -18.0590 C   0  0  0  0  0  0  0  0  0  0  0  0
   -4.7950    0.5680  -19.3650 C   0  0  0  0  0  0  0  0  0  0  0  0
   -3.6620    1.3970  -19.5800 C   0  0  0  0  0  0  0  0  0  0  0  0
   -3.2880    1.7540  -20.8470 C   0  0  0  0  0  0  0  0  0  0  0  0
   -4.0360    1.3070  -21.9580 C   0  0  0  0  0  0  0  0  0  0  0  0
   -5.1290    0.4950  -21.7780 C   0  0  0  0  0  0  0  0  0  0  0  0
   -5.5360    0.1000  -20.4730 C   0  0  0  0  0  0  0  0  0  0  0  0
   -5.6840    0.1700  -22.6520 H   0  0  0  0  0  0  0  0  0  0  0  0
   -3.7660    1.5990  -22.9690 H   0  0  0  0  0  0  0  0  0  0  0  0
   -2.4210    2.3880  -21.0070 H   0  0  0  0  0  0  0  0  0  0  0  0
   -3.1070    1.7400  -18.7120 H   0  0  0  0  0  0  0  0  0  0  0  0
   -4.6570    0.5610  -17.1990 H   0  0  0  0  0  0  0  0  0  0  0  0
   -7.7610   -1.7320  -18.6550 H   0  0  0  0  0  0  0  0  0  0  0  0
   -7.3700   -2.6850  -21.5950 C   0  0  0  0  0  0  0  0  0  0  0  0
   -8.6970   -2.8890  -22.3440 C   0  0  2  0  0  0  0  0  0  0  0  0
   -8.6280   -4.0240  -23.3700 C   0  0  0  0  0  0  0  0  0  0  0  0
   -8.4940   -5.5970  -22.5530 S   0  0  0  0  0  0  0  0  0  0  0  0
   -9.6440   -5.7090  -21.6690 O   0  0  0  0  0  0  0  0  0  0  0  0
   -7.1490   -5.7570  -22.0230 O   0  0  0  0  0  0  0  0  0  0  0  0
   -8.5900   -6.6610  -23.8280 N   0  0  0  0  0  0  0  0  0  0  0  0
   -9.8760   -6.9470  -24.4530 C   0  0  0  0  0  0  0  0  0  0  0  0
   -9.7550   -7.8520  -25.0530 H   0  0  0  0  0  0  0  0  0  0  0  0
  -10.6890   -7.0960  -23.7360 H   0  0  0  0  0  0  0  0  0  0  0  0
  -10.1470   -6.1370  -25.1350 H   0  0  0  0  0  0  0  0  0  0  0  0
   -8.0370   -7.4750  -23.5900 H   0  0  0  0  0  0  0  0  0  0  0  0
   -7.7470   -3.9390  -24.0130 H   0  0  0  0  0  0  0  0  0  0  0  0
   -9.5320   -4.0530  -23.9890 H   0  0  0  0  0  0  0  0  0  0  0  0
   -9.4460   -3.1500  -21.5920 H   0  0  0  0  0  0  0  0  0  0  0  0
   -7.2920   -3.3200  -20.7140 H   0  0  0  0  0  0  0  0  0  0  0  0
   -6.4940   -2.9040  -22.2260 H   0  0  0  0  0  0  0  0  0  0  0  0
  -10.5830   -1.1920  -22.9560 C   0  0  0  0  0  0  0  0  0  0  0  0
  -11.5510   -1.8530  -22.1770 C   0  0  0  0  0  0  0  0  0  0  0  0
  -12.8770   -1.4730  -22.3010 C   0  0  0  0  0  0  0  0  0  0  0  0
  -13.8070   -2.0790  -21.5400 F   0  0  0  0  0  0  0  0  0  0  0  0
  -13.3080   -0.4870  -23.1760 C   0  0  0  0  0  0  0  0  0  0  0  0
  -12.3480    0.2200  -23.8780 C   0  0  0  0  0  0  0  0  0  0  0  0
  -11.0010   -0.1300  -23.7710 C   0  0  0  0  0  0  0  0  0  0  0  0
  -10.0080    0.6610  -24.5650 C   0  0  0  0  0  0  0  0  0  0  0  0
  -10.2330    1.8330  -24.8880 O   0  0  0  0  0  0  0  0  0  0  0  0
  -12.6280    1.0500  -24.5130 H   0  0  0  0  0  0  0  0  0  0  0  0
  -14.3700   -0.2870  -23.2750 H   0  0  0  0  0  0  0  0  0  0  0  0
  -11.2930   -2.6240  -21.4600 H   0  0  0  0  0  0  0  0  0  0  0  0
   -8.9870   -2.0490  -25.0110 H   0  0  0  0  0  0  0  0  0  0  0  0
   -7.4520   -1.4100  -24.3530 H   0  0  0  0  0  0  0  0  0  0  0  0
   -7.2410   -0.0100  -26.2380 H   0  0  0  0  0  0  0  0  0  0  0  0
   -8.3840    1.3450  -26.4260 H   0  0  0  0  0  0  0  0  0  0  0  0
   -8.5460    2.6930  -24.3630 H   0  0  0  0  0  0  0  0  0  0  0  0
   -6.5220    2.7600  -22.3890 H   0  0  0  0  0  0  0  0  0  0  0  0
   -6.0240    3.9240  -23.6320 H   0  0  0  0  0  0  0  0  0  0  0  0
   -7.5950    4.1160  -22.8050 H   0  0  0  0  0  0  0  0  0  0  0  0
  1  2  1  0  0  0  0
  1 62  1  0  0  0  0
  1 63  1  0  0  0  0
  1 64  1  0  0  0  0
  2  3  1  0  0  0  0
  2 61  1  0  0  0  0
  3  4  2  0  0  0  0
  3  5  1  0  0  0  0
  5  6  1  0  0  0  0
  5 59  1  0  0  0  0
  5 60  1  0  0  0  0
  6  7  1  0  0  0  0
  6 52  1  0  0  0  0
  7  8  1  0  0  0  0
  7 57  1  0  0  0  0
  7 58  1  0  0  0  0
  8  9  1  0  0  0  0
  8 29  1  0  0  0  0
  8 45  1  0  0  0  0
  9 10  2  0  0  0  0
  9 11  1  0  0  0  0
 11 12  1  0  0  0  0
 11 28  1  0  0  0  0
 12 13  2  0  0  0  0
 12 21  1  0  0  0  0
 13 14  1  0  0  0  0
 13 27  1  0  0  0  0
 14 15  2  0  0  0  0
 15 16  1  0  0  0  0
 15 26  1  0  0  0  0
 16 17  1  0  0  0  0
 16 21  2  0  0  0  0
 17 18  2  0  0  0  0
 17 25  1  0  0  0  0
 18 19  1  0  0  0  0
 18 24  1  0  0  0  0
 19 20  2  0  0  0  0
 19 23  1  0  0  0  0
 20 21  1  0  0  0  0
 20 22  1  0  0  0  0
 28 29  1  0  0  0  0
 28 43  1  0  0  0  0
 28 44  1  0  0  0  0
 29 30  1  0  0  0  0
 29 42  1  0  0  0  0
 30 31  1  0  0  0  0
 30 40  1  0  0  0  0
 30 41  1  0  0  0  0
 31 32  2  0  0  0  0
 31 33  2  0  0  0  0
 31 34  1  0  0  0  0
 34 35  1  0  0  0  0
 34 39  1  0  0  0  0
 35 36  1  0  0  0  0
 35 37  1  0  0  0  0
 35 38  1  0  0  0  0
 45 46  1  0  0  0  0
 45 51  2  0  0  0  0
 46 47  2  0  0  0  0
 46 56  1  0  0  0  0
 47 48  1  0  0  0  0
 47 49  1  0  0  0  0
 49 50  2  0  0  0  0
 49 55  1  0  0  0  0
 50 51  1  0  0  0  0
 50 54  1  0  0  0  0
 51 52  1  0  0  0  0
 52 53  2  0  0  0  0
M  END
$$$$
mol91_score_28.0383
  PyMOL2.5          3D                             0

 66 71  0  0  1  0  0  0  0  0999 V2000
   -7.7530    3.0330  -22.2560 C   0  0  0  0  0  0  0  0  0  0  0  0
   -8.7830    2.5690  -23.1490 N   0  0  0  0  0  0  0  0  0  0  0  0
   -8.4020    1.8990  -24.2600 C   0  0  0  0  0  0  0  0  0  0  0  0
   -7.2300    1.7610  -24.5800 O   0  0  0  0  0  0  0  0  0  0  0  0
   -9.5410    1.2530  -25.0400 C   0  0  0  0  0  0  0  0  0  0  0  0
  -10.0690    0.1100  -24.3190 N   0  0  0  0  0  0  0  0  0  0  0  0
   -9.1590   -1.0020  -24.1130 C   0  0  0  0  0  0  0  0  0  0  0  0
   -9.3750   -1.7400  -22.7570 C   0  0  2  0  0  0  0  0  0  0  0  0
   -8.8000   -0.8390  -21.6250 C   0  0  0  0  0  0  0  0  0  0  0  0
   -9.3420    0.1400  -21.1430 O   0  0  0  0  0  0  0  0  0  0  0  0
   -7.5480   -1.3010  -21.2850 N   0  0  0  0  0  0  0  0  0  0  0  0
   -6.7490   -0.7440  -20.2510 C   0  0  0  0  0  0  0  0  0  0  0  0
   -7.0320   -1.0270  -18.9390 C   0  0  0  0  0  0  0  0  0  0  0  0
   -6.2900   -0.5980  -17.8890 N   0  0  0  0  0  0  0  0  0  0  0  0
   -5.2290    0.1250  -18.1440 C   0  0  0  0  0  0  0  0  0  0  0  0
   -4.8040    0.4800  -19.4560 C   0  0  0  0  0  0  0  0  0  0  0  0
   -3.6470    1.2740  -19.6860 C   0  0  0  0  0  0  0  0  0  0  0  0
   -3.2740    1.6030  -20.9620 C   0  0  0  0  0  0  0  0  0  0  0  0
   -4.0400    1.1610  -22.0630 C   0  0  0  0  0  0  0  0  0  0  0  0
   -5.1680    0.3960  -21.8630 C   0  0  0  0  0  0  0  0  0  0  0  0
   -5.5800    0.0290  -20.5520 C   0  0  0  0  0  0  0  0  0  0  0  0
   -5.7860    0.1310  -22.7160 H   0  0  0  0  0  0  0  0  0  0  0  0
   -3.7540    1.4420  -23.0720 H   0  0  0  0  0  0  0  0  0  0  0  0
   -2.4000    2.2240  -21.1380 H   0  0  0  0  0  0  0  0  0  0  0  0
   -3.0770    1.6270  -18.8300 H   0  0  0  0  0  0  0  0  0  0  0  0
   -4.6460    0.4740  -17.2900 H   0  0  0  0  0  0  0  0  0  0  0  0
   -7.8930   -1.6460  -18.6950 H   0  0  0  0  0  0  0  0  0  0  0  0
   -7.1250   -2.4630  -22.0410 C   0  0  0  0  0  0  0  0  0  0  0  0
   -8.4420   -2.9880  -22.6370 C   0  0  2  0  0  0  0  0  0  0  0  0
   -8.2010   -3.7800  -23.9170 C   0  0  0  0  0  0  0  0  0  0  0  0
   -9.4510   -4.2800  -24.4290 N   0  0  0  0  0  0  0  0  0  0  0  0
   -9.5670   -4.9270  -25.6250 C   0  0  0  0  0  0  0  0  0  0  0  0
   -8.4280   -5.1810  -26.4250 C   0  0  0  0  0  0  0  0  0  0  0  0
   -8.5030   -5.8010  -27.5890 N   0  0  0  0  0  0  0  0  0  0  0  0
   -9.7220   -6.1980  -27.9730 C   0  0  0  0  0  0  0  0  0  0  0  0
  -10.8360   -5.9580  -27.1840 C   0  0  0  0  0  0  0  0  0  0  0  0
  -10.7810   -5.3160  -26.0140 N   0  0  0  0  0  0  0  0  0  0  0  0
  -11.8170   -6.2950  -27.5040 H   0  0  0  0  0  0  0  0  0  0  0  0
   -9.7980   -6.7150  -28.9260 H   0  0  0  0  0  0  0  0  0  0  0  0
   -7.4450   -4.8560  -26.0900 H   0  0  0  0  0  0  0  0  0  0  0  0
  -10.3220   -3.9830  -24.0090 H   0  0  0  0  0  0  0  0  0  0  0  0
   -7.5190   -4.6210  -23.7360 H   0  0  0  0  0  0  0  0  0  0  0  0
   -7.6900   -3.1360  -24.6550 H   0  0  0  0  0  0  0  0  0  0  0  0
   -8.8900   -3.6620  -21.8980 H   0  0  0  0  0  0  0  0  0  0  0  0
   -6.3930   -2.1950  -22.8220 H   0  0  0  0  0  0  0  0  0  0  0  0
   -6.6350   -3.1870  -21.3810 H   0  0  0  0  0  0  0  0  0  0  0  0
  -10.8720   -1.9670  -22.5610 C   0  0  0  0  0  0  0  0  0  0  0  0
  -11.4110   -3.0480  -21.8430 C   0  0  0  0  0  0  0  0  0  0  0  0
  -12.7620   -3.0620  -21.5110 C   0  0  0  0  0  0  0  0  0  0  0  0
  -13.4360   -4.3110  -20.5060 Cl  0  0  0  0  0  0  0  0  0  0  0  0
  -13.6410   -2.0700  -21.9380 C   0  0  0  0  0  0  0  0  0  0  0  0
  -13.1300   -1.0210  -22.6660 C   0  0  0  0  0  0  0  0  0  0  0  0
  -11.7740   -0.9750  -22.9870 C   0  0  0  0  0  0  0  0  0  0  0  0
  -11.3310    0.1890  -23.8120 C   0  0  0  0  0  0  0  0  0  0  0  0
  -12.0630    1.1510  -24.0100 O   0  0  0  0  0  0  0  0  0  0  0  0
  -13.7680   -0.2060  -22.9900 H   0  0  0  0  0  0  0  0  0  0  0  0
  -14.7000   -2.1490  -21.7050 H   0  0  0  0  0  0  0  0  0  0  0  0
  -10.7970   -3.8860  -21.5320 H   0  0  0  0  0  0  0  0  0  0  0  0
   -8.1590   -0.5630  -24.1160 H   0  0  0  0  0  0  0  0  0  0  0  0
   -9.2180   -1.6900  -24.9680 H   0  0  0  0  0  0  0  0  0  0  0  0
  -10.3750    1.9440  -25.1460 H   0  0  0  0  0  0  0  0  0  0  0  0
   -9.1530    0.9670  -26.0220 H   0  0  0  0  0  0  0  0  0  0  0  0
   -9.6900    2.3670  -22.7650 H   0  0  0  0  0  0  0  0  0  0  0  0
   -8.1790    3.4770  -21.3590 H   0  0  0  0  0  0  0  0  0  0  0  0
   -7.1140    2.1990  -21.9500 H   0  0  0  0  0  0  0  0  0  0  0  0
   -7.1250    3.7730  -22.7620 H   0  0  0  0  0  0  0  0  0  0  0  0
  1  2  1  0  0  0  0
  1 64  1  0  0  0  0
  1 65  1  0  0  0  0
  1 66  1  0  0  0  0
  2  3  1  0  0  0  0
  2 63  1  0  0  0  0
  3  4  2  0  0  0  0
  3  5  1  0  0  0  0
  5  6  1  0  0  0  0
  5 61  1  0  0  0  0
  5 62  1  0  0  0  0
  6  7  1  0  0  0  0
  6 54  1  0  0  0  0
  7  8  1  0  0  0  0
  7 59  1  0  0  0  0
  7 60  1  0  0  0  0
  8  9  1  0  0  0  0
  8 29  1  0  0  0  0
  8 47  1  0  0  0  0
  9 10  2  0  0  0  0
  9 11  1  0  0  0  0
 11 12  1  0  0  0  0
 11 28  1  0  0  0  0
 12 13  2  0  0  0  0
 12 21  1  0  0  0  0
 13 14  1  0  0  0  0
 13 27  1  0  0  0  0
 14 15  2  0  0  0  0
 15 16  1  0  0  0  0
 15 26  1  0  0  0  0
 16 17  1  0  0  0  0
 16 21  2  0  0  0  0
 17 18  2  0  0  0  0
 17 25  1  0  0  0  0
 18 19  1  0  0  0  0
 18 24  1  0  0  0  0
 19 20  2  0  0  0  0
 19 23  1  0  0  0  0
 20 21  1  0  0  0  0
 20 22  1  0  0  0  0
 28 29  1  0  0  0  0
 28 45  1  0  0  0  0
 28 46  1  0  0  0  0
 29 30  1  0  0  0  0
 29 44  1  0  0  0  0
 30 31  1  0  0  0  0
 30 42  1  0  0  0  0
 30 43  1  0  0  0  0
 31 32  1  0  0  0  0
 31 41  1  0  0  0  0
 32 33  2  0  0  0  0
 32 37  1  0  0  0  0
 33 34  1  0  0  0  0
 33 40  1  0  0  0  0
 34 35  2  0  0  0  0
 35 36  1  0  0  0  0
 35 39  1  0  0  0  0
 36 37  2  0  0  0  0
 36 38  1  0  0  0  0
 47 48  1  0  0  0  0
 47 53  2  0  0  0  0
 48 49  2  0  0  0  0
 48 58  1  0  0  0  0
 49 50  1  0  0  0  0
 49 51  1  0  0  0  0
 51 52  2  0  0  0  0
 51 57  1  0  0  0  0
 52 53  1  0  0  0  0
 52 56  1  0  0  0  0
 53 54  1  0  0  0  0
 54 55  2  0  0  0  0
M  END
$$$$
mol95_score_25.6682
  PyMOL2.5          3D                             0

 66 71  0  0  1  0  0  0  0  0999 V2000
   -7.6640    3.0640  -22.4750 C   0  0  0  0  0  0  0  0  0  0  0  0
   -8.5440    2.5680  -23.5080 N   0  0  0  0  0  0  0  0  0  0  0  0
   -8.0100    1.9420  -24.5840 C   0  0  0  0  0  0  0  0  0  0  0  0
   -6.8120    1.9400  -24.8340 O   0  0  0  0  0  0  0  0  0  0  0  0
   -9.0430    1.1960  -25.4250 C   0  0  0  0  0  0  0  0  0  0  0  0
   -9.6800    0.1540  -24.6390 N   0  0  0  0  0  0  0  0  0  0  0  0
   -8.8140   -0.9380  -24.2390 C   0  0  0  0  0  0  0  0  0  0  0  0
   -9.2070   -1.5970  -22.8810 C   0  0  2  0  0  0  0  0  0  0  0  0
   -8.6720   -0.7170  -21.7190 C   0  0  0  0  0  0  0  0  0  0  0  0
   -9.2070    0.2750  -21.2570 O   0  0  0  0  0  0  0  0  0  0  0  0
   -7.4610   -1.2320  -21.3090 N   0  0  0  0  0  0  0  0  0  0  0  0
   -6.6950   -0.6810  -20.2470 C   0  0  0  0  0  0  0  0  0  0  0  0
   -7.0000   -0.9610  -18.9390 C   0  0  0  0  0  0  0  0  0  0  0  0
   -6.2660   -0.5420  -17.8790 N   0  0  0  0  0  0  0  0  0  0  0  0
   -5.1940    0.1700  -18.1160 C   0  0  0  0  0  0  0  0  0  0  0  0
   -4.7550    0.5320  -19.4220 C   0  0  0  0  0  0  0  0  0  0  0  0
   -3.5860    1.3090  -19.6490 C   0  0  0  0  0  0  0  0  0  0  0  0
   -3.2080    1.6350  -20.9220 C   0  0  0  0  0  0  0  0  0  0  0  0
   -3.9790    1.2110  -22.0270 C   0  0  0  0  0  0  0  0  0  0  0  0
   -5.1180    0.4670  -21.8330 C   0  0  0  0  0  0  0  0  0  0  0  0
   -5.5290    0.0980  -20.5250 C   0  0  0  0  0  0  0  0  0  0  0  0
   -5.7420    0.2010  -22.6820 H   0  0  0  0  0  0  0  0  0  0  0  0
   -3.6810    1.4820  -23.0350 H   0  0  0  0  0  0  0  0  0  0  0  0
   -2.3170    2.2340  -21.0940 H   0  0  0  0  0  0  0  0  0  0  0  0
   -3.0070    1.6420  -18.7920 H   0  0  0  0  0  0  0  0  0  0  0  0
   -4.6140    0.4990  -17.2520 H   0  0  0  0  0  0  0  0  0  0  0  0
   -7.8720   -1.5660  -18.7030 H   0  0  0  0  0  0  0  0  0  0  0  0
   -7.0730   -2.4560  -21.9910 C   0  0  0  0  0  0  0  0  0  0  0  0
   -8.3900   -2.8960  -22.6530 C   0  0  2  0  0  0  0  0  0  0  0  0
   -8.2380   -3.7990  -23.8870 C   0  0  0  0  0  0  0  0  0  0  0  0
   -7.7780   -5.1300  -23.5670 N   0  0  0  0  0  0  0  0  0  0  0  0
   -6.4830   -5.5350  -23.4680 C   0  0  0  0  0  0  0  0  0  0  0  0
   -5.4140   -4.9410  -24.1680 C   0  0  0  0  0  0  0  0  0  0  0  0
   -4.1810   -5.5480  -24.0280 C   0  0  0  0  0  0  0  0  0  0  0  0
   -3.9740   -6.6040  -23.2330 N   0  0  0  0  0  0  0  0  0  0  0  0
   -5.0480   -7.0670  -22.6130 C   0  0  0  0  0  0  0  0  0  0  0  0
   -6.2930   -6.6150  -22.6890 N   0  0  0  0  0  0  0  0  0  0  0  0
   -4.9000   -7.9390  -21.9750 H   0  0  0  0  0  0  0  0  0  0  0  0
   -3.3090   -5.1890  -24.5770 H   0  0  0  0  0  0  0  0  0  0  0  0
   -5.5490   -4.0800  -24.8140 H   0  0  0  0  0  0  0  0  0  0  0  0
   -8.3930   -5.6650  -22.9750 H   0  0  0  0  0  0  0  0  0  0  0  0
   -7.5540   -3.3450  -24.6090 H   0  0  0  0  0  0  0  0  0  0  0  0
   -9.2150   -3.8800  -24.3830 H   0  0  0  0  0  0  0  0  0  0  0  0
   -8.9290   -3.4680  -21.8940 H   0  0  0  0  0  0  0  0  0  0  0  0
   -6.2740   -2.2850  -22.7310 H   0  0  0  0  0  0  0  0  0  0  0  0
   -6.6890   -3.1850  -21.2690 H   0  0  0  0  0  0  0  0  0  0  0  0
  -10.7200   -1.7530  -22.7920 C   0  0  0  0  0  0  0  0  0  0  0  0
  -11.3380   -2.7120  -21.9680 C   0  0  0  0  0  0  0  0  0  0  0  0
  -12.7150   -2.7390  -21.8260 C   0  0  0  0  0  0  0  0  0  0  0  0
  -13.4530   -3.9240  -20.7810 Cl  0  0  0  0  0  0  0  0  0  0  0  0
  -13.5350   -1.8240  -22.4830 C   0  0  0  0  0  0  0  0  0  0  0  0
  -12.9400   -0.8630  -23.2760 C   0  0  0  0  0  0  0  0  0  0  0  0
  -11.5530   -0.8240  -23.4330 C   0  0  0  0  0  0  0  0  0  0  0  0
  -10.9830    0.2850  -24.2630 C   0  0  0  0  0  0  0  0  0  0  0  0
  -11.6570    1.2700  -24.5620 O   0  0  0  0  0  0  0  0  0  0  0  0
  -13.5370   -0.1060  -23.7750 H   0  0  0  0  0  0  0  0  0  0  0  0
  -14.6110   -1.8660  -22.3450 H   0  0  0  0  0  0  0  0  0  0  0  0
  -10.7670   -3.4370  -21.4000 H   0  0  0  0  0  0  0  0  0  0  0  0
   -7.8030   -0.5230  -24.1530 H   0  0  0  0  0  0  0  0  0  0  0  0
   -8.7920   -1.6800  -25.0470 H   0  0  0  0  0  0  0  0  0  0  0  0
   -9.8370    1.8660  -25.7520 H   0  0  0  0  0  0  0  0  0  0  0  0
   -8.5350    0.7890  -26.3000 H   0  0  0  0  0  0  0  0  0  0  0  0
   -9.4780    2.3090  -23.2290 H   0  0  0  0  0  0  0  0  0  0  0  0
   -7.0870    2.2530  -22.0040 H   0  0  0  0  0  0  0  0  0  0  0  0
   -8.2430    3.5940  -21.7170 H   0  0  0  0  0  0  0  0  0  0  0  0
   -6.9540    3.7730  -22.9040 H   0  0  0  0  0  0  0  0  0  0  0  0
  1  2  1  0  0  0  0
  1 64  1  0  0  0  0
  1 65  1  0  0  0  0
  1 66  1  0  0  0  0
  2  3  1  0  0  0  0
  2 63  1  0  0  0  0
  3  4  2  0  0  0  0
  3  5  1  0  0  0  0
  5  6  1  0  0  0  0
  5 61  1  0  0  0  0
  5 62  1  0  0  0  0
  6  7  1  0  0  0  0
  6 54  1  0  0  0  0
  7  8  1  0  0  0  0
  7 59  1  0  0  0  0
  7 60  1  0  0  0  0
  8  9  1  0  0  0  0
  8 29  1  0  0  0  0
  8 47  1  0  0  0  0
  9 10  2  0  0  0  0
  9 11  1  0  0  0  0
 11 12  1  0  0  0  0
 11 28  1  0  0  0  0
 12 13  2  0  0  0  0
 12 21  1  0  0  0  0
 13 14  1  0  0  0  0
 13 27  1  0  0  0  0
 14 15  2  0  0  0  0
 15 16  1  0  0  0  0
 15 26  1  0  0  0  0
 16 17  1  0  0  0  0
 16 21  2  0  0  0  0
 17 18  2  0  0  0  0
 17 25  1  0  0  0  0
 18 19  1  0  0  0  0
 18 24  1  0  0  0  0
 19 20  2  0  0  0  0
 19 23  1  0  0  0  0
 20 21  1  0  0  0  0
 20 22  1  0  0  0  0
 28 29  1  0  0  0  0
 28 45  1  0  0  0  0
 28 46  1  0  0  0  0
 29 30  1  0  0  0  0
 29 44  1  0  0  0  0
 30 31  1  0  0  0  0
 30 42  1  0  0  0  0
 30 43  1  0  0  0  0
 31 32  1  0  0  0  0
 31 41  1  0  0  0  0
 32 33  2  0  0  0  0
 32 37  1  0  0  0  0
 33 34  1  0  0  0  0
 33 40  1  0  0  0  0
 34 35  2  0  0  0  0
 34 39  1  0  0  0  0
 35 36  1  0  0  0  0
 36 37  2  0  0  0  0
 36 38  1  0  0  0  0
 47 48  1  0  0  0  0
 47 53  2  0  0  0  0
 48 49  2  0  0  0  0
 48 58  1  0  0  0  0
 49 50  1  0  0  0  0
 49 51  1  0  0  0  0
 51 52  2  0  0  0  0
 51 57  1  0  0  0  0
 52 53  1  0  0  0  0
 52 56  1  0  0  0  0
 53 54  1  0  0  0  0
 54 55  2  0  0  0  0
M  END
$$$$
mol96_score_23.7388
  PyMOL2.5          3D                             0

 66 70  0  0  1  0  0  0  0  0999 V2000
   -7.7390    2.8760  -22.3100 C   0  0  0  0  0  0  0  0  0  0  0  0
   -8.6700    2.3750  -23.2910 N   0  0  0  0  0  0  0  0  0  0  0  0
   -8.2130    1.8450  -24.4490 C   0  0  0  0  0  0  0  0  0  0  0  0
   -7.0400    1.8250  -24.7850 O   0  0  0  0  0  0  0  0  0  0  0  0
   -9.3220    1.1740  -25.2570 C   0  0  0  0  0  0  0  0  0  0  0  0
   -9.8550    0.0560  -24.4930 N   0  0  0  0  0  0  0  0  0  0  0  0
   -8.9160   -1.0040  -24.1710 C   0  0  0  0  0  0  0  0  0  0  0  0
   -9.2100   -1.7370  -22.8260 C   0  0  2  0  0  0  0  0  0  0  0  0
   -8.6930   -0.8720  -21.6390 C   0  0  0  0  0  0  0  0  0  0  0  0
   -9.2630    0.0760  -21.1350 O   0  0  0  0  0  0  0  0  0  0  0  0
   -7.4540   -1.3440  -21.2600 N   0  0  0  0  0  0  0  0  0  0  0  0
   -6.6790   -0.7610  -20.2210 C   0  0  0  0  0  0  0  0  0  0  0  0
   -6.9900   -0.9970  -18.9060 C   0  0  0  0  0  0  0  0  0  0  0  0
   -6.2640   -0.5430  -17.8550 N   0  0  0  0  0  0  0  0  0  0  0  0
   -5.1950    0.1670  -18.1090 C   0  0  0  0  0  0  0  0  0  0  0  0
   -4.7570    0.4970  -19.4240 C   0  0  0  0  0  0  0  0  0  0  0  0
   -3.6020    1.2910  -19.6570 C   0  0  0  0  0  0  0  0  0  0  0  0
   -3.2240    1.6070  -20.9320 C   0  0  0  0  0  0  0  0  0  0  0  0
   -3.9840    1.1550  -22.0320 C   0  0  0  0  0  0  0  0  0  0  0  0
   -5.1070    0.3860  -21.8310 C   0  0  0  0  0  0  0  0  0  0  0  0
   -5.5200    0.0260  -20.5190 C   0  0  0  0  0  0  0  0  0  0  0  0
   -5.7240    0.1200  -22.6850 H   0  0  0  0  0  0  0  0  0  0  0  0
   -3.6960    1.4340  -23.0410 H   0  0  0  0  0  0  0  0  0  0  0  0
   -2.3490    2.2260  -21.1120 H   0  0  0  0  0  0  0  0  0  0  0  0
   -3.0320    1.6480  -18.8030 H   0  0  0  0  0  0  0  0  0  0  0  0
   -4.6160    0.5270  -17.2560 H   0  0  0  0  0  0  0  0  0  0  0  0
   -7.8630   -1.5970  -18.6610 H   0  0  0  0  0  0  0  0  0  0  0  0
   -7.0010   -2.4920  -22.0220 C   0  0  0  0  0  0  0  0  0  0  0  0
   -8.2910   -2.9890  -22.7050 C   0  0  2  0  0  0  0  0  0  0  0  0
   -8.0090   -3.7200  -24.0090 C   0  0  0  0  0  0  0  0  0  0  0  0
   -7.2680   -4.8890  -23.7450 O   0  0  0  0  0  0  0  0  0  0  0  0
   -7.0710   -5.6820  -24.9100 C   0  0  0  0  0  0  0  0  0  0  0  0
   -5.6980   -6.3240  -24.7990 C   0  0  0  0  0  0  0  0  0  0  0  0
   -5.4830   -6.9380  -25.6800 H   0  0  0  0  0  0  0  0  0  0  0  0
   -4.9180   -5.5620  -24.7090 H   0  0  0  0  0  0  0  0  0  0  0  0
   -5.6670   -6.9610  -23.9100 H   0  0  0  0  0  0  0  0  0  0  0  0
   -8.1830   -6.7190  -25.0090 C   0  0  0  0  0  0  0  0  0  0  0  0
   -8.1650   -7.3500  -24.1160 H   0  0  0  0  0  0  0  0  0  0  0  0
   -9.1700   -6.2490  -25.0700 H   0  0  0  0  0  0  0  0  0  0  0  0
   -8.0500   -7.3520  -25.8940 H   0  0  0  0  0  0  0  0  0  0  0  0
   -7.0930   -5.0320  -25.8010 H   0  0  0  0  0  0  0  0  0  0  0  0
   -8.9580   -3.9540  -24.5210 H   0  0  0  0  0  0  0  0  0  0  0  0
   -7.4140   -3.0760  -24.6800 H   0  0  0  0  0  0  0  0  0  0  0  0
   -8.7660   -3.7030  -22.0280 H   0  0  0  0  0  0  0  0  0  0  0  0
   -6.2250   -2.2190  -22.7570 H   0  0  0  0  0  0  0  0  0  0  0  0
   -6.5690   -3.2470  -21.3590 H   0  0  0  0  0  0  0  0  0  0  0  0
  -10.7110   -1.9780  -22.7080 C   0  0  0  0  0  0  0  0  0  0  0  0
  -11.2460   -2.9570  -21.8550 C   0  0  0  0  0  0  0  0  0  0  0  0
  -12.6150   -3.0390  -21.6500 C   0  0  0  0  0  0  0  0  0  0  0  0
  -13.2660   -4.1850  -20.5140 Cl  0  0  0  0  0  0  0  0  0  0  0  0
  -13.5170   -2.2030  -22.3030 C   0  0  0  0  0  0  0  0  0  0  0  0
  -13.0040   -1.2430  -23.1430 C   0  0  0  0  0  0  0  0  0  0  0  0
  -11.6280   -1.1170  -23.3300 C   0  0  0  0  0  0  0  0  0  0  0  0
  -11.1810    0.0330  -24.1790 C   0  0  0  0  0  0  0  0  0  0  0  0
  -11.9570    0.9070  -24.5360 O   0  0  0  0  0  0  0  0  0  0  0  0
  -13.6520   -0.5390  -23.6510 H   0  0  0  0  0  0  0  0  0  0  0  0
  -14.5830   -2.3000  -22.1220 H   0  0  0  0  0  0  0  0  0  0  0  0
  -10.6100   -3.6510  -21.3170 H   0  0  0  0  0  0  0  0  0  0  0  0
   -8.9110   -1.7220  -24.9970 H   0  0  0  0  0  0  0  0  0  0  0  0
   -7.9200   -0.5510  -24.1260 H   0  0  0  0  0  0  0  0  0  0  0  0
   -8.9080    0.8600  -26.2190 H   0  0  0  0  0  0  0  0  0  0  0  0
  -10.1510    1.8630  -25.4290 H   0  0  0  0  0  0  0  0  0  0  0  0
   -9.5790    2.0830  -22.9670 H   0  0  0  0  0  0  0  0  0  0  0  0
   -7.4420    3.9100  -22.5120 H   0  0  0  0  0  0  0  0  0  0  0  0
   -8.2080    2.8340  -21.3320 H   0  0  0  0  0  0  0  0  0  0  0  0
   -6.8520    2.2400  -22.2920 H   0  0  0  0  0  0  0  0  0  0  0  0
  1  2  1  0  0  0  0
  1 64  1  0  0  0  0
  1 65  1  0  0  0  0
  1 66  1  0  0  0  0
  2  3  1  0  0  0  0
  2 63  1  0  0  0  0
  3  4  2  0  0  0  0
  3  5  1  0  0  0  0
  5  6  1  0  0  0  0
  5 61  1  0  0  0  0
  5 62  1  0  0  0  0
  6  7  1  0  0  0  0
  6 54  1  0  0  0  0
  7  8  1  0  0  0  0
  7 59  1  0  0  0  0
  7 60  1  0  0  0  0
  8  9  1  0  0  0  0
  8 29  1  0  0  0  0
  8 47  1  0  0  0  0
  9 10  2  0  0  0  0
  9 11  1  0  0  0  0
 11 12  1  0  0  0  0
 11 28  1  0  0  0  0
 12 13  2  0  0  0  0
 12 21  1  0  0  0  0
 13 14  1  0  0  0  0
 13 27  1  0  0  0  0
 14 15  2  0  0  0  0
 15 16  1  0  0  0  0
 15 26  1  0  0  0  0
 16 17  1  0  0  0  0
 16 21  2  0  0  0  0
 17 18  2  0  0  0  0
 17 25  1  0  0  0  0
 18 19  1  0  0  0  0
 18 24  1  0  0  0  0
 19 20  2  0  0  0  0
 19 23  1  0  0  0  0
 20 21  1  0  0  0  0
 20 22  1  0  0  0  0
 28 29  1  0  0  0  0
 28 45  1  0  0  0  0
 28 46  1  0  0  0  0
 29 30  1  0  0  0  0
 29 44  1  0  0  0  0
 30 31  1  0  0  0  0
 30 42  1  0  0  0  0
 30 43  1  0  0  0  0
 31 32  1  0  0  0  0
 32 33  1  0  0  0  0
 32 37  1  0  0  0  0
 32 41  1  0  0  0  0
 33 34  1  0  0  0  0
 33 35  1  0  0  0  0
 33 36  1  0  0  0  0
 37 38  1  0  0  0  0
 37 39  1  0  0  0  0
 37 40  1  0  0  0  0
 47 48  1  0  0  0  0
 47 53  2  0  0  0  0
 48 49  2  0  0  0  0
 48 58  1  0  0  0  0
 49 50  1  0  0  0  0
 49 51  1  0  0  0  0
 51 52  2  0  0  0  0
 51 57  1  0  0  0  0
 52 53  1  0  0  0  0
 52 56  1  0  0  0  0
 53 54  1  0  0  0  0
 54 55  2  0  0  0  0
M  END
$$$$
mol97_score_17.6176
  PyMOL2.5          3D                             0

 40 43  0  0  1  0  0  0  0  0999 V2000
   -8.7560   -6.1150  -24.3480 C   0  0  0  0  0  0  0  0  0  0  0  0
   -9.0400   -5.0580  -23.2940 C   0  0  2  0  0  0  0  0  0  0  0  0
  -10.5550   -5.0240  -23.0530 C   0  0  0  0  0  0  0  0  0  0  0  0
  -11.0130   -3.7960  -22.5130 O   0  0  0  0  0  0  0  0  0  0  0  0
  -10.0650   -3.2190  -21.6530 C   0  0  0  0  0  0  0  0  0  0  0  0
   -8.8490   -2.7110  -22.4670 C   0  0  1  0  0  0  0  0  0  0  0  0
   -8.5890   -3.6480  -23.6540 C   0  0  0  0  0  0  0  0  0  0  0  0
   -9.1250   -3.2730  -24.5350 H   0  0  0  0  0  0  0  0  0  0  0  0
   -7.5230   -3.6280  -23.9000 H   0  0  0  0  0  0  0  0  0  0  0  0
   -9.0060   -1.3170  -22.8880 N   0  0  0  0  0  0  0  0  0  0  0  0
   -8.3580   -0.4400  -22.0450 C   0  0  0  0  0  0  0  0  0  0  0  0
   -8.4380    0.7620  -21.9730 O   0  0  0  0  0  0  0  0  0  0  0  0
   -7.5190   -1.2350  -21.2390 N   0  0  0  0  0  0  0  0  0  0  0  0
   -6.6770   -0.7360  -20.2070 C   0  0  0  0  0  0  0  0  0  0  0  0
   -6.9380   -1.0570  -18.8980 C   0  0  0  0  0  0  0  0  0  0  0  0
   -6.2410   -0.5880  -17.8340 N   0  0  0  0  0  0  0  0  0  0  0  0
   -5.2340    0.2080  -18.0930 C   0  0  0  0  0  0  0  0  0  0  0  0
   -4.8380    0.5990  -19.3990 C   0  0  0  0  0  0  0  0  0  0  0  0
   -3.6870    1.4010  -19.5910 C   0  0  0  0  0  0  0  0  0  0  0  0
   -3.2900    1.7300  -20.8530 C   0  0  0  0  0  0  0  0  0  0  0  0
   -4.0240    1.2730  -21.9650 C   0  0  0  0  0  0  0  0  0  0  0  0
   -5.1280    0.4760  -21.8030 C   0  0  0  0  0  0  0  0  0  0  0  0
   -5.5740    0.1240  -20.5010 C   0  0  0  0  0  0  0  0  0  0  0  0
   -5.6410    0.0890  -22.6750 H   0  0  0  0  0  0  0  0  0  0  0  0
   -3.6760    1.5110  -22.9630 H   0  0  0  0  0  0  0  0  0  0  0  0
   -2.3970    2.3240  -21.0060 H   0  0  0  0  0  0  0  0  0  0  0  0
   -3.1230    1.7120  -18.7170 H   0  0  0  0  0  0  0  0  0  0  0  0
   -4.6490    0.5500  -17.2440 H   0  0  0  0  0  0  0  0  0  0  0  0
   -7.7650   -1.7170  -18.6530 H   0  0  0  0  0  0  0  0  0  0  0  0
   -7.6250   -2.5780  -21.5630 C   0  0  0  0  0  0  0  0  0  0  0  0
   -6.8550   -3.4390  -21.2170 O   0  0  0  0  0  0  0  0  0  0  0  0
   -9.8880   -1.0170  -23.2750 H   0  0  0  0  0  0  0  0  0  0  0  0
  -10.5350   -2.3770  -21.1350 H   0  0  0  0  0  0  0  0  0  0  0  0
   -9.7510   -3.9480  -20.8960 H   0  0  0  0  0  0  0  0  0  0  0  0
  -11.0660   -5.1630  -24.0170 H   0  0  0  0  0  0  0  0  0  0  0  0
  -10.8430   -5.8510  -22.3950 H   0  0  0  0  0  0  0  0  0  0  0  0
   -8.5090   -5.3490  -22.3770 H   0  0  0  0  0  0  0  0  0  0  0  0
   -9.2550   -5.8510  -25.2840 H   0  0  0  0  0  0  0  0  0  0  0  0
   -9.1430   -7.0880  -24.0240 H   0  0  0  0  0  0  0  0  0  0  0  0
   -7.6910   -6.2350  -24.5670 H   0  0  0  0  0  0  0  0  0  0  0  0
  1  2  1  0  0  0  0
  1 38  1  0  0  0  0
  1 39  1  0  0  0  0
  1 40  1  0  0  0  0
  2  3  1  0  0  0  0
  2  7  1  0  0  0  0
  2 37  1  0  0  0  0
  3  4  1  0  0  0  0
  3 35  1  0  0  0  0
  3 36  1  0  0  0  0
  4  5  1  0  0  0  0
  5  6  1  0  0  0  0
  5 33  1  0  0  0  0
  5 34  1  0  0  0  0
  6  7  1  0  0  0  0
  6 10  1  0  0  0  0
  6 30  1  0  0  0  0
  7  8  1  0  0  0  0
  7  9  1  0  0  0  0
 10 11  1  0  0  0  0
 10 32  1  0  0  0  0
 11 12  2  0  0  0  0
 11 13  1  0  0  0  0
 13 14  1  0  0  0  0
 13 30  1  0  0  0  0
 14 15  2  0  0  0  0
 14 23  1  0  0  0  0
 15 16  1  0  0  0  0
 15 29  1  0  0  0  0
 16 17  2  0  0  0  0
 17 18  1  0  0  0  0
 17 28  1  0  0  0  0
 18 19  1  0  0  0  0
 18 23  2  0  0  0  0
 19 20  2  0  0  0  0
 19 27  1  0  0  0  0
 20 21  1  0  0  0  0
 20 26  1  0  0  0  0
 21 22  2  0  0  0  0
 21 25  1  0  0  0  0
 22 23  1  0  0  0  0
 22 24  1  0  0  0  0
 30 31  2  0  0  0  0
M  END
$$$$
