
     RDKit          3D

 57 60  0  0  0  0  0  0  0  0999 V2000
    8.7058   -5.0109   26.9162 C   0  0  0  0  0  0  0  0  0  0  0  0
    8.7947   -5.0366   25.3767 C   0  0  0  0  0  0  0  0  0  0  0  0
    9.8992   -6.0270   24.9571 C   0  0  0  0  0  0  0  0  0  0  0  0
    7.5088   -5.5169   24.8232 C   0  0  0  0  0  0  0  0  0  0  0  0
    6.5056   -5.8596   24.3533 N   0  0  0  0  0  0  0  0  0  0  0  0
    9.0069   -3.6340   24.7802 C   0  0  0  0  0  0  0  0  0  0  0  0
    8.3622   -2.5171   25.3225 C   0  0  0  0  0  0  0  0  0  0  0  0
    8.5002   -1.2590   24.7474 C   0  0  0  0  0  0  0  0  0  0  0  0
    9.2474   -1.1014   23.5798 C   0  0  0  0  0  0  0  0  0  0  0  0
    9.3527    0.1838   22.9718 N   0  0  0  0  0  0  0  0  0  0  0  0
   10.1932    1.1925   23.6032 C   0  0  0  0  0  0  0  0  0  0  0  0
   11.6368    1.2346   23.1060 C   0  0  0  0  0  0  0  0  0  0  0  0
   12.3779    2.4111   23.2403 C   0  0  0  0  0  0  0  0  0  0  0  0
   13.6918    2.4743   22.7807 C   0  0  0  0  0  0  0  0  0  0  0  0
   14.2842    1.3716   22.1712 C   0  0  0  0  0  0  0  0  0  0  0  0
   13.5506    0.1976   22.0646 C   0  0  0  0  0  0  0  0  0  0  0  0
   14.2598   -1.2065   21.3071 Cl  0  0  0  0  0  0  0  0  0  0  0  0
   12.2506    0.1135   22.5470 C   0  0  0  0  0  0  0  0  0  0  0  0
    8.8628    0.4475   21.7088 C   0  0  0  0  0  0  0  0  0  0  0  0
    9.1271    1.4697   21.1046 O   0  0  0  0  0  0  0  0  0  0  0  0
    7.9498   -0.6344   21.1202 C   0  0  0  0  0  0  0  0  0  0  0  0
    7.0919   -0.1102   20.0232 C   0  0  0  0  0  0  0  0  0  0  0  0
    7.4166   -0.3397   18.7194 C   0  0  0  0  0  0  0  0  0  0  0  0
    6.7436    0.1678   17.6528 N   0  0  0  0  0  0  0  0  0  0  0  0
    5.7108    0.9431   17.9110 C   0  0  0  0  0  0  0  0  0  0  0  0
    5.2678    1.2751   19.2213 C   0  0  0  0  0  0  0  0  0  0  0  0
    4.1642    2.1366   19.4664 C   0  0  0  0  0  0  0  0  0  0  0  0
    3.7992    2.4256   20.7544 C   0  0  0  0  0  0  0  0  0  0  0  0
    4.5085    1.8777   21.8485 C   0  0  0  0  0  0  0  0  0  0  0  0
    5.5743    1.0456   21.6333 C   0  0  0  0  0  0  0  0  0  0  0  0
    5.9813    0.7296   20.3123 C   0  0  0  0  0  0  0  0  0  0  0  0
    9.8460   -2.2235   23.0027 C   0  0  0  0  0  0  0  0  0  0  0  0
    9.7711   -3.4579   23.6280 C   0  0  0  0  0  0  0  0  0  0  0  0
    8.6700   -6.0323   27.3121 H   0  0  0  0  0  0  0  0  0  0  0  0
    9.5917   -4.5131   27.3198 H   0  0  0  0  0  0  0  0  0  0  0  0
    7.8189   -4.4771   27.2695 H   0  0  0  0  0  0  0  0  0  0  0  0
    9.8960   -6.2046   23.8783 H   0  0  0  0  0  0  0  0  0  0  0  0
    9.7554   -6.9899   25.4564 H   0  0  0  0  0  0  0  0  0  0  0  0
   10.8781   -5.6308   25.2425 H   0  0  0  0  0  0  0  0  0  0  0  0
    7.7477   -2.6022   26.2165 H   0  0  0  0  0  0  0  0  0  0  0  0
    8.0011   -0.3933   25.1820 H   0  0  0  0  0  0  0  0  0  0  0  0
    9.7300    2.1704   23.4354 H   0  0  0  0  0  0  0  0  0  0  0  0
   10.1858    0.9937   24.6838 H   0  0  0  0  0  0  0  0  0  0  0  0
   11.9252    3.2841   23.7126 H   0  0  0  0  0  0  0  0  0  0  0  0
   14.2616    3.3939   22.8996 H   0  0  0  0  0  0  0  0  0  0  0  0
   15.3006    1.4134   21.7918 H   0  0  0  0  0  0  0  0  0  0  0  0
   11.7417   -0.8425   22.4976 H   0  0  0  0  0  0  0  0  0  0  0  0
    8.5866   -1.4404   20.7387 H   0  0  0  0  0  0  0  0  0  0  0  0
    7.3554   -1.0805   21.9231 H   0  0  0  0  0  0  0  0  0  0  0  0
    8.2788   -0.9725   18.4900 H   0  0  0  0  0  0  0  0  0  0  0  0
    5.1778    1.3587   17.0565 H   0  0  0  0  0  0  0  0  0  0  0  0
    3.6207    2.5752   18.6305 H   0  0  0  0  0  0  0  0  0  0  0  0
    2.9648    3.0923   20.9463 H   0  0  0  0  0  0  0  0  0  0  0  0
    4.2172    2.1265   22.8664 H   0  0  0  0  0  0  0  0  0  0  0  0
    6.1392    0.6326   22.4659 H   0  0  0  0  0  0  0  0  0  0  0  0
   10.3659   -2.1632   22.0482 H   0  0  0  0  0  0  0  0  0  0  0  0
   10.3610   -4.2692   23.2124 H   0  0  0  0  0  0  0  0  0  0  0  0
  1  2  1  0
  2  3  1  0
  2  4  1  0
  4  5  3  0
  2  6  1  0
  6  7  2  0
  7  8  1  0
  8  9  2  0
  9 10  1  0
 10 11  1  0
 11 12  1  0
 12 13  2  0
 13 14  1  0
 14 15  2  0
 15 16  1  0
 16 17  1  0
 16 18  2  0
 10 19  1  0
 19 20  2  0
 19 21  1  0
 21 22  1  0
 22 23  2  0
 23 24  1  0
 24 25  2  0
 25 26  1  0
 26 27  2  0
 27 28  1  0
 28 29  2  0
 29 30  1  0
 30 31  2  0
  9 32  1  0
 32 33  2  0
 33  6  1  0
 18 12  1  0
 31 22  1  0
 31 26  1  0
  1 34  1  0
  1 35  1  0
  1 36  1  0
  3 37  1  0
  3 38  1  0
  3 39  1  0
  7 40  1  0
  8 41  1  0
 11 42  1  0
 11 43  1  0
 13 44  1  0
 14 45  1  0
 15 46  1  0
 18 47  1  0
 21 48  1  0
 21 49  1  0
 23 50  1  0
 25 51  1  0
 27 52  1  0
 28 53  1  0
 29 54  1  0
 30 55  1  0
 32 56  1  0
 33 57  1  0
M  END
$$$$
