
     RDKit          3D

 57 62  0  0  0  0  0  0  0  0999 V2000
    8.8509   -2.7971   23.6509 C   0  0  0  0  0  0  0  0  0  0  0  0
    8.9131   -1.7958   22.5032 C   0  0  1  0  0  0  0  0  0  0  0  0
    7.5683   -1.5489   21.8066 C   0  0  0  0  0  0  0  0  0  0  0  0
    7.7742   -0.2664   21.1599 N   0  0  0  0  0  0  0  0  0  0  0  0
    6.9383    0.2612   20.1382 C   0  0  0  0  0  0  0  0  0  0  0  0
    7.2115   -0.0142   18.8229 C   0  0  0  0  0  0  0  0  0  0  0  0
    6.4860    0.4452   17.7716 N   0  0  0  0  0  0  0  0  0  0  0  0
    5.4502    1.2055   18.0402 C   0  0  0  0  0  0  0  0  0  0  0  0
    5.0349    1.5557   19.3572 C   0  0  0  0  0  0  0  0  0  0  0  0
    3.9069    2.3886   19.6125 C   0  0  0  0  0  0  0  0  0  0  0  0
    3.5434    2.6905   20.8945 C   0  0  0  0  0  0  0  0  0  0  0  0
    4.2785    2.1766   21.9863 C   0  0  0  0  0  0  0  0  0  0  0  0
    5.3728    1.3738   21.7671 C   0  0  0  0  0  0  0  0  0  0  0  0
    5.7881    1.0546   20.4480 C   0  0  0  0  0  0  0  0  0  0  0  0
    8.8184    0.4614   21.6985 C   0  0  0  0  0  0  0  0  0  0  0  0
    9.1598    1.5534   21.3076 O   0  0  0  0  0  0  0  0  0  0  0  0
    9.4265   -0.3740   22.8573 C   0  0  1  0  0  0  0  0  0  0  0  0
    8.8466    0.1220   24.2102 C   0  0  0  0  0  0  0  0  0  0  0  0
    9.2552    1.4788   24.5015 N   0  0  0  0  0  0  0  0  0  0  0  0
    8.3850    2.3219   25.2999 C   0  0  0  0  0  0  0  0  0  0  0  0
    7.8747    3.5354   24.5607 C   0  0  0  0  0  0  0  0  0  0  0  0
    7.8134    4.7727   25.1883 C   0  0  0  0  0  0  0  0  0  0  0  0
    7.3211    5.8292   24.4405 C   0  0  0  0  0  0  0  0  0  0  0  0
    6.9156    5.6883   23.1798 N   0  0  0  0  0  0  0  0  0  0  0  0
    7.0086    4.4582   22.6861 C   0  0  0  0  0  0  0  0  0  0  0  0
    7.4530    3.3661   23.3102 N   0  0  0  0  0  0  0  0  0  0  0  0
   10.5270    1.9223   24.2689 C   0  0  0  0  0  0  0  0  0  0  0  0
   10.9027    3.0257   24.6328 O   0  0  0  0  0  0  0  0  0  0  0  0
   11.4365    0.9601   23.5555 C   0  0  0  0  0  0  0  0  0  0  0  0
   12.8041    1.2414   23.5201 C   0  0  0  0  0  0  0  0  0  0  0  0
   13.6841    0.3951   22.8724 C   0  0  0  0  0  0  0  0  0  0  0  0
   13.1649   -0.7478   22.2701 C   0  0  0  0  0  0  0  0  0  0  0  0
   14.0025   -1.5791   21.6267 F   0  0  0  0  0  0  0  0  0  0  0  0
   11.8203   -1.0558   22.2898 C   0  0  0  0  0  0  0  0  0  0  0  0
   10.9265   -0.1895   22.9287 C   0  0  0  0  0  0  0  0  0  0  0  0
    8.5954   -3.8001   23.2918 H   0  0  0  0  0  0  0  0  0  0  0  0
    9.8096   -2.8636   24.1778 H   0  0  0  0  0  0  0  0  0  0  0  0
    8.0950   -2.5075   24.3895 H   0  0  0  0  0  0  0  0  0  0  0  0
    9.5688   -2.2068   21.7302 H   0  0  0  0  0  0  0  0  0  0  0  0
    7.3336   -2.3193   21.0671 H   0  0  0  0  0  0  0  0  0  0  0  0
    6.7462   -1.5281   22.5446 H   0  0  0  0  0  0  0  0  0  0  0  0
    8.0714   -0.6319   18.5691 H   0  0  0  0  0  0  0  0  0  0  0  0
    4.8726    1.5840   17.1931 H   0  0  0  0  0  0  0  0  0  0  0  0
    3.3461    2.7856   18.7686 H   0  0  0  0  0  0  0  0  0  0  0  0
    2.6880    3.3331   21.0885 H   0  0  0  0  0  0  0  0  0  0  0  0
    3.9888    2.4280   23.0023 H   0  0  0  0  0  0  0  0  0  0  0  0
    5.9490    0.9998   22.6097 H   0  0  0  0  0  0  0  0  0  0  0  0
    9.1746   -0.5459   25.0235 H   0  0  0  0  0  0  0  0  0  0  0  0
    7.7501    0.0994   24.1633 H   0  0  0  0  0  0  0  0  0  0  0  0
    7.5336    1.7147   25.6204 H   0  0  0  0  0  0  0  0  0  0  0  0
    8.9095    2.6303   26.2048 H   0  0  0  0  0  0  0  0  0  0  0  0
    8.1397    4.8927   26.2141 H   0  0  0  0  0  0  0  0  0  0  0  0
    7.2513    6.8242   24.8728 H   0  0  0  0  0  0  0  0  0  0  0  0
    6.6662    4.3167   21.6643 H   0  0  0  0  0  0  0  0  0  0  0  0
   13.1745    2.1358   24.0083 H   0  0  0  0  0  0  0  0  0  0  0  0
   14.7504    0.5998   22.8134 H   0  0  0  0  0  0  0  0  0  0  0  0
   11.4930   -1.9693   21.8034 H   0  0  0  0  0  0  0  0  0  0  0  0
  1  2  1  0
  2  3  1  0
  3  4  1  0
  4  5  1  0
  5  6  2  0
  6  7  1  0
  7  8  2  0
  8  9  1  0
  9 10  2  0
 10 11  1  0
 11 12  2  0
 12 13  1  0
 13 14  2  0
  4 15  1  0
 15 16  2  0
 15 17  1  0
 17 18  1  1
 18 19  1  0
 19 20  1  0
 20 21  1  0
 21 22  2  0
 22 23  1  0
 23 24  2  0
 24 25  1  0
 25 26  2  0
 19 27  1  0
 27 28  2  0
 27 29  1  0
 29 30  2  0
 30 31  1  0
 31 32  2  0
 32 33  1  0
 32 34  1  0
 34 35  2  0
 17  2  1  0
 26 21  1  0
 35 29  1  0
 14  5  1  0
 35 17  1  0
 14  9  1  0
  1 36  1  0
  1 37  1  0
  1 38  1  0
  2 39  1  6
  3 40  1  0
  3 41  1  0
  6 42  1  0
  8 43  1  0
 10 44  1  0
 11 45  1  0
 12 46  1  0
 13 47  1  0
 18 48  1  0
 18 49  1  0
 20 50  1  0
 20 51  1  0
 22 52  1  0
 23 53  1  0
 25 54  1  0
 30 55  1  0
 31 56  1  0
 34 57  1  0
M  END
$$$$
