
     RDKit          3D

 67 72  0  0  0  0  0  0  0  0999 V2000
    7.1814    4.3818   22.3204 C   0  0  0  0  0  0  0  0  0  0  0  0
    7.8263    3.3938   23.1593 N   0  0  0  0  0  0  0  0  0  0  0  0
    7.6878    3.4104   24.5006 C   0  0  0  0  0  0  0  0  0  0  0  0
    6.9675    4.1922   25.1080 O   0  0  0  0  0  0  0  0  0  0  0  0
    8.5093    2.3766   25.2837 C   0  0  0  0  0  0  0  0  0  0  0  0
    9.3586    1.5064   24.4979 N   0  0  0  0  0  0  0  0  0  0  0  0
    8.8925    0.1699   24.1710 C   0  0  0  0  0  0  0  0  0  0  0  0
    9.4763   -0.3542   22.8269 C   0  0  2  0  0  0  0  0  0  0  0  0
    8.8372    0.4425   21.6599 C   0  0  0  0  0  0  0  0  0  0  0  0
    9.1650    1.5423   21.2489 O   0  0  0  0  0  0  0  0  0  0  0  0
    7.7745   -0.2770   21.1732 N   0  0  0  0  0  0  0  0  0  0  0  0
    6.9625    0.2406   20.1280 C   0  0  0  0  0  0  0  0  0  0  0  0
    7.3054   -0.0080   18.8227 C   0  0  0  0  0  0  0  0  0  0  0  0
    6.6212    0.4515   17.7451 N   0  0  0  0  0  0  0  0  0  0  0  0
    5.5677    1.1975   17.9827 C   0  0  0  0  0  0  0  0  0  0  0  0
    5.1040    1.5425   19.2857 C   0  0  0  0  0  0  0  0  0  0  0  0
    3.9680    2.3740   19.4848 C   0  0  0  0  0  0  0  0  0  0  0  0
    3.5512    2.6885   20.7491 C   0  0  0  0  0  0  0  0  0  0  0  0
    4.2393    2.1829   21.8744 C   0  0  0  0  0  0  0  0  0  0  0  0
    5.3419    1.3773   21.7064 C   0  0  0  0  0  0  0  0  0  0  0  0
    5.8126    1.0434   20.4048 C   0  0  0  0  0  0  0  0  0  0  0  0
    7.5885   -1.5611   21.8259 C   0  0  0  0  0  0  0  0  0  0  0  0
    8.9546   -1.7855   22.4928 C   0  0  2  0  0  0  0  0  0  0  0  0
    8.9074   -2.7840   23.6422 C   0  0  0  0  0  0  0  0  0  0  0  0
    8.3516   -4.0006   23.1574 O   0  0  0  0  0  0  0  0  0  0  0  0
    8.5006   -5.0994   24.0562 C   0  0  0  0  0  0  0  0  0  0  0  0
    8.1224   -6.3931   23.4444 C   0  0  0  0  0  0  0  0  0  0  0  0
    6.6584   -6.8263   23.7301 C   0  0  0  0  0  0  0  0  0  0  0  0
    6.7521   -6.8489   23.5406 C   0  0  0  0  0  0  0  0  0  0  0  0
   10.9816   -0.1725   22.8777 C   0  0  0  0  0  0  0  0  0  0  0  0
   11.8705   -1.0300   22.2151 C   0  0  0  0  0  0  0  0  0  0  0  0
   13.2304   -0.7698   22.2283 C   0  0  0  0  0  0  0  0  0  0  0  0
   14.3117   -1.8644   21.4121 Cl  0  0  0  0  0  0  0  0  0  0  0  0
   13.7603    0.3499   22.8672 C   0  0  0  0  0  0  0  0  0  0  0  0
   12.8930    1.2011   23.5206 C   0  0  0  0  0  0  0  0  0  0  0  0
   11.5238    0.9377   23.5455 C   0  0  0  0  0  0  0  0  0  0  0  0
   10.6628    1.8867   24.3210 C   0  0  0  0  0  0  0  0  0  0  0  0
   11.0959    2.9416   24.7639 O   0  0  0  0  0  0  0  0  0  0  0  0
    7.7549    4.4557   21.3925 H   0  0  0  0  0  0  0  0  0  0  0  0
    7.1664    5.3542   22.8215 H   0  0  0  0  0  0  0  0  0  0  0  0
    6.1496    4.0991   22.0765 H   0  0  0  0  0  0  0  0  0  0  0  0
    8.4760    2.7541   22.7134 H   0  0  0  0  0  0  0  0  0  0  0  0
    9.1439    2.9391   25.9754 H   0  0  0  0  0  0  0  0  0  0  0  0
    7.8094    1.7840   25.8828 H   0  0  0  0  0  0  0  0  0  0  0  0
    9.1792   -0.5181   24.9785 H   0  0  0  0  0  0  0  0  0  0  0  0
    7.7987    0.2067   24.1159 H   0  0  0  0  0  0  0  0  0  0  0  0
    8.1886   -0.6075   18.6101 H   0  0  0  0  0  0  0  0  0  0  0  0
    5.0183    1.5740   17.1189 H   0  0  0  0  0  0  0  0  0  0  0  0
    3.4496    2.7594   18.6110 H   0  0  0  0  0  0  0  0  0  0  0  0
    2.6949    3.3399   20.9003 H   0  0  0  0  0  0  0  0  0  0  0  0
    3.9212    2.4681   22.8747 H   0  0  0  0  0  0  0  0  0  0  0  0
    5.8679    1.0063   22.5813 H   0  0  0  0  0  0  0  0  0  0  0  0
    6.7778   -1.5289   22.5704 H   0  0  0  0  0  0  0  0  0  0  0  0
    7.3439   -2.3381   21.0989 H   0  0  0  0  0  0  0  0  0  0  0  0
    9.6003   -2.1959   21.7135 H   0  0  0  0  0  0  0  0  0  0  0  0
    8.2901   -2.3586   24.4558 H   0  0  0  0  0  0  0  0  0  0  0  0
    9.9213   -2.9497   24.0471 H   0  0  0  0  0  0  0  0  0  0  0  0
    9.5793   -5.1495   24.3327 H   0  0  0  0  0  0  0  0  0  0  0  0
    8.0009   -4.8346   25.0265 H   0  0  0  0  0  0  0  0  0  0  0  0
    7.7790   -6.3858   22.4272 H   0  0  0  0  0  0  0  0  0  0  0  0
    5.8130   -6.5842   22.7535 H   0  0  0  0  0  0  0  0  0  0  0  0
    6.3398   -8.0536   23.6865 H   0  0  0  0  0  0  0  0  0  0  0  0
    6.2117   -6.2377   25.1893 H   0  0  0  0  0  0  0  0  0  0  0  0
    8.9926   -7.0728   23.3225 H   0  0  0  0  0  0  0  0  0  0  0  0
   11.5238   -1.9030   21.6746 H   0  0  0  0  0  0  0  0  0  0  0  0
   14.8287    0.5401   22.8456 H   0  0  0  0  0  0  0  0  0  0  0  0
   13.2512    2.0889   24.0308 H   0  0  0  0  0  0  0  0  0  0  0  0
  1  2  1  0
  2  3  1  0
  3  4  2  0
  3  5  1  0
  5  6  1  0
  6  7  1  0
  8  7  1  1
  8  9  1  0
  9 10  2  0
  9 11  1  0
 11 12  1  0
 12 13  2  0
 13 14  1  0
 14 15  2  0
 15 16  1  0
 16 17  2  0
 17 18  1  0
 18 19  2  0
 19 20  1  0
 20 21  2  0
 11 22  1  0
 22 23  1  0
 23 24  1  0
 24 25  1  0
 25 26  1  0
 26 27  1  0
 27 28  1  0
 28 29  1  0
  8 30  1  0
 30 31  2  0
 31 32  1  0
 32 33  1  0
 32 34  2  0
 34 35  1  0
 35 36  2  0
 36 37  1  0
 37 38  2  0
 37  6  1  0
 23  8  1  0
 29 27  1  0
 36 30  1  0
 21 12  1  0
 21 16  1  0
  1 39  1  0
  1 40  1  0
  1 41  1  0
  2 42  1  0
  5 43  1  0
  5 44  1  0
  7 45  1  0
  7 46  1  0
 13 47  1  0
 15 48  1  0
 17 49  1  0
 18 50  1  0
 19 51  1  0
 20 52  1  0
 22 53  1  0
 22 54  1  0
 23 55  1  6
 24 56  1  0
 24 57  1  0
 26 58  1  0
 26 59  1  0
 27 60  1  0
 28 61  1  0
 28 62  1  0
 29 63  1  0
 29 64  1  0
 31 65  1  0
 34 66  1  0
 35 67  1  0
M  END
$$$$
