
     RDKit          3D

 67 72  0  0  0  0  0  0  0  0999 V2000
    7.1972    4.5966   22.5268 C   0  0  0  0  0  0  0  0  0  0  0  0
    8.0291    3.6093   23.2248 N   0  0  0  0  0  4  0  0  0  0  0  0
    7.6259    3.4210   24.6353 C   0  0  0  0  0  0  0  0  0  0  0  0
    8.3962    2.2864   25.3554 C   0  0  0  0  0  0  0  0  0  0  0  0
    9.2492    1.4729   24.5093 N   0  0  0  0  0  0  0  0  0  0  0  0
    8.8308    0.1176   24.2170 C   0  0  0  0  0  0  0  0  0  0  0  0
    9.4023   -0.3717   22.8670 C   0  0  2  0  0  0  0  0  0  0  0  0
    8.7192    0.4920   21.7793 C   0  0  0  0  0  0  0  0  0  0  0  0
    8.8935    1.6874   21.5844 O   0  0  0  0  0  0  0  0  0  0  0  0
    7.7826   -0.2739   21.1397 N   0  0  0  0  0  0  0  0  0  0  0  0
    6.9398    0.2605   20.1315 C   0  0  0  0  0  0  0  0  0  0  0  0
    7.2167   -0.0166   18.8177 C   0  0  0  0  0  0  0  0  0  0  0  0
    6.4963    0.4491   17.7686 N   0  0  0  0  0  0  0  0  0  0  0  0
    5.4602    1.2071   18.0451 C   0  0  0  0  0  0  0  0  0  0  0  0
    5.0561    1.5615   19.3660 C   0  0  0  0  0  0  0  0  0  0  0  0
    3.9247    2.3842   19.6148 C   0  0  0  0  0  0  0  0  0  0  0  0
    3.5498    2.6924   20.8938 C   0  0  0  0  0  0  0  0  0  0  0  0
    4.2873    2.1923   21.9883 C   0  0  0  0  0  0  0  0  0  0  0  0
    5.3949    1.4060   21.7767 C   0  0  0  0  0  0  0  0  0  0  0  0
    5.8131    1.0738   20.4551 C   0  0  0  0  0  0  0  0  0  0  0  0
    7.5606   -1.5580   21.7806 C   0  0  0  0  0  0  0  0  0  0  0  0
    8.9008   -1.7971   22.4899 C   0  0  2  0  0  0  0  0  0  0  0  0
    8.8459   -2.8361   23.6271 C   0  0  0  0  0  0  0  0  0  0  0  0
    8.5620   -4.1799   23.1619 N   0  0  0  0  0  0  0  0  0  0  0  0
    7.3281   -4.7169   23.0546 C   0  0  0  0  0  0  0  0  0  0  0  0
    6.2662   -4.0564   23.5609 N   0  0  0  0  0  0  0  0  0  0  0  0
    5.1138   -4.6963   23.4051 C   0  0  0  0  0  0  0  0  0  0  0  0
    4.9180   -5.8583   22.7833 N   0  0  0  0  0  0  0  0  0  0  0  0
    6.0534   -6.4117   22.3380 C   0  0  0  0  0  0  0  0  0  0  0  0
    7.2682   -5.9201   22.4398 N   0  0  0  0  0  0  0  0  0  0  0  0
   10.9082   -0.1736   22.9092 C   0  0  0  0  0  0  0  0  0  0  0  0
   11.8160   -1.0430   22.2880 C   0  0  0  0  0  0  0  0  0  0  0  0
   13.1650   -0.7425   22.2650 C   0  0  0  0  0  0  0  0  0  0  0  0
   14.2609   -1.8069   21.4280 Cl  0  0  0  0  0  0  0  0  0  0  0  0
   13.6704    0.4030   22.8745 C   0  0  0  0  0  0  0  0  0  0  0  0
   12.7899    1.2495   23.5184 C   0  0  0  0  0  0  0  0  0  0  0  0
   11.4239    0.9684   23.5449 C   0  0  0  0  0  0  0  0  0  0  0  0
   10.5150    1.9230   24.2617 C   0  0  0  0  0  0  0  0  0  0  0  0
   10.8715    3.0541   24.5843 O   0  0  0  0  0  0  0  0  0  0  0  0
    7.5036    4.6777   21.4833 H   0  0  0  0  0  0  0  0  0  0  0  0
    7.3023    5.5768   23.0047 H   0  0  0  0  0  0  0  0  0  0  0  0
    6.1419    4.2999   22.5601 H   0  0  0  0  0  0  0  0  0  0  0  0
    8.0185    2.7107   22.7177 H   0  0  0  0  0  0  0  0  0  0  0  0
    9.0161    3.9127   23.2211 H   0  0  0  0  0  0  0  0  0  0  0  0
    7.7930    4.3596   25.1792 H   0  0  0  0  0  0  0  0  0  0  0  0
    6.5457    3.2313   24.6928 H   0  0  0  0  0  0  0  0  0  0  0  0
    7.6898    1.6112   25.8521 H   0  0  0  0  0  0  0  0  0  0  0  0
    9.0246    2.6990   26.1479 H   0  0  0  0  0  0  0  0  0  0  0  0
    9.1665   -0.5463   25.0217 H   0  0  0  0  0  0  0  0  0  0  0  0
    7.7345    0.1091   24.1701 H   0  0  0  0  0  0  0  0  0  0  0  0
    8.0782   -0.6359   18.5747 H   0  0  0  0  0  0  0  0  0  0  0  0
    4.8726    1.5778   17.2036 H   0  0  0  0  0  0  0  0  0  0  0  0
    3.3691    2.7645   18.7642 H   0  0  0  0  0  0  0  0  0  0  0  0
    2.6899    3.3312   21.0779 H   0  0  0  0  0  0  0  0  0  0  0  0
    3.9914    2.4529   23.0017 H   0  0  0  0  0  0  0  0  0  0  0  0
    5.9425    1.0209   22.6316 H   0  0  0  0  0  0  0  0  0  0  0  0
    6.7344   -1.5023   22.5053 H   0  0  0  0  0  0  0  0  0  0  0  0
    7.3036   -2.3244   21.0475 H   0  0  0  0  0  0  0  0  0  0  0  0
    9.5781   -2.1692   21.7182 H   0  0  0  0  0  0  0  0  0  0  0  0
    8.0488   -2.5679   24.3248 H   0  0  0  0  0  0  0  0  0  0  0  0
    9.8001   -2.8393   24.1782 H   0  0  0  0  0  0  0  0  0  0  0  0
    9.2996   -4.7219   22.7406 H   0  0  0  0  0  0  0  0  0  0  0  0
    4.2274   -4.2244   23.8357 H   0  0  0  0  0  0  0  0  0  0  0  0
    5.9916   -7.3726   21.8276 H   0  0  0  0  0  0  0  0  0  0  0  0
   11.4948   -1.9574   21.8054 H   0  0  0  0  0  0  0  0  0  0  0  0
   14.7329    0.6154   22.8333 H   0  0  0  0  0  0  0  0  0  0  0  0
   13.1423    2.1489   24.0107 H   0  0  0  0  0  0  0  0  0  0  0  0
  1  2  1  0
  2  3  1  0
  3  4  1  0
  4  5  1  0
  5  6  1  0
  7  6  1  1
  7  8  1  0
  8  9  2  0
  8 10  1  0
 10 11  1  0
 11 12  2  0
 12 13  1  0
 13 14  2  0
 14 15  1  0
 15 16  2  0
 16 17  1  0
 17 18  2  0
 18 19  1  0
 19 20  2  0
 10 21  1  0
 21 22  1  0
 22 23  1  0
 23 24  1  0
 24 25  1  0
 25 26  2  0
 26 27  1  0
 27 28  2  0
 28 29  1  0
 29 30  2  0
  7 31  1  0
 31 32  2  0
 32 33  1  0
 33 34  1  0
 33 35  2  0
 35 36  1  0
 36 37  2  0
 37 38  1  0
 38 39  2  0
 38  5  1  0
 22  7  1  0
 30 25  1  0
 37 31  1  0
 20 11  1  0
 20 15  1  0
  1 40  1  0
  1 41  1  0
  1 42  1  0
  2 43  1  0
  2 44  1  0
  3 45  1  0
  3 46  1  0
  4 47  1  0
  4 48  1  0
  6 49  1  0
  6 50  1  0
 12 51  1  0
 14 52  1  0
 16 53  1  0
 17 54  1  0
 18 55  1  0
 19 56  1  0
 21 57  1  0
 21 58  1  0
 22 59  1  6
 23 60  1  0
 23 61  1  0
 24 62  1  0
 27 63  1  0
 29 64  1  0
 32 65  1  0
 35 66  1  0
 36 67  1  0
M  CHG  1   2   1
M  END
$$$$
