
     RDKit          3D

 63 67  0  0  0  0  0  0  0  0999 V2000
    6.0310   -3.6877   20.4797 C   0  0  0  0  0  0  0  0  0  0  0  0
    6.2714   -3.9083   21.8909 C   0  0  0  0  0  0  0  0  0  0  0  0
    7.6486   -3.9864   22.3010 C   0  0  0  0  0  0  0  0  0  0  0  0
    8.5284   -4.5343   21.5704 O   0  0  0  0  0  0  0  0  0  0  0  0
    7.7035   -3.1815   23.3924 N   0  0  0  0  0  0  0  0  0  0  0  0
    6.5941   -2.6969   24.1882 C   0  0  0  0  0  0  0  0  0  0  0  0
    7.2061   -1.1147   26.5171 C   0  0  0  0  0  0  0  0  0  0  0  0
    8.7579   -0.8540   26.6556 C   0  0  0  0  0  0  0  0  0  0  0  0
   10.1785   -1.9033   24.3864 C   0  0  0  0  0  0  0  0  0  0  0  0
    9.8137   -2.9823   23.7630 C   0  0  0  0  0  0  0  0  0  0  0  0
    9.1800   -3.5811   24.8856 C   0  0  0  0  0  0  0  0  0  0  0  0
    8.3735   -2.6563   25.4333 C   0  0  0  0  0  0  0  0  0  0  0  0
    8.6479   -1.2307   24.9819 C   0  0  0  0  0  0  0  0  0  0  0  0
    9.2863   -1.0775   23.3889 C   0  0  0  0  0  0  0  0  0  0  0  0
    9.3075    0.1611   22.9392 N   0  0  1  0  0  4  0  0  0  0  0  0
   10.2534    1.1963   23.6491 C   0  0  0  0  0  0  0  0  0  0  0  0
   11.6616    1.1880   23.1559 C   0  0  0  0  0  0  0  0  0  0  0  0
   12.3679    2.3702   23.2576 C   0  0  0  0  0  0  0  0  0  0  0  0
   13.6727    2.4288   22.7988 C   0  0  0  0  0  0  0  0  0  0  0  0
   14.2555    1.3150   22.2069 C   0  0  0  0  0  0  0  0  0  0  0  0
   13.5160    0.1533   22.0830 C   0  0  0  0  0  0  0  0  0  0  0  0
   14.1637   -1.1852   21.1760 Cl  0  0  0  0  0  0  0  0  0  0  0  0
   12.2401    0.0535   22.5789 C   0  0  0  0  0  0  0  0  0  0  0  0
    8.8945    0.3857   21.6070 C   0  0  0  0  0  0  0  0  0  0  0  0
    9.0606    1.5133   21.1216 O   0  0  0  0  0  0  0  0  0  0  0  0
    7.9237   -0.6752   21.0513 C   0  0  0  0  0  0  0  0  0  0  0  0
    7.0382   -0.0911   20.0119 C   0  0  0  0  0  0  0  0  0  0  0  0
    7.3184   -0.2969   18.6642 C   0  0  0  0  0  0  0  0  0  0  0  0
    6.6279    0.2423   17.6470 N   0  0  0  0  0  0  0  0  0  0  0  0
    5.5926    1.0342   17.9497 C   0  0  0  0  0  0  0  0  0  0  0  0
    5.2095    1.3345   19.2894 C   0  0  0  0  0  0  0  0  0  0  0  0
    4.1116    2.1866   19.5771 C   0  0  0  0  0  0  0  0  0  0  0  0
    3.7724    2.4579   20.8849 C   0  0  0  0  0  0  0  0  0  0  0  0
    4.5044    1.9017   21.9321 C   0  0  0  0  0  0  0  0  0  0  0  0
    5.5794    1.0717   21.6825 C   0  0  0  0  0  0  0  0  0  0  0  0
    5.9575    0.7673   20.3452 C   0  0  0  0  0  0  0  0  0  0  0  0
    6.4623   -3.2153   19.6627 H   0  0  0  0  0  0  0  0  0  0  0  0
    6.4624   -3.2152   19.6626 H   0  0  0  0  0  0  0  0  0  0  0  0
    5.4677   -4.6520   20.8342 H   0  0  0  0  0  0  0  0  0  0  0  0
    6.0263   -1.8419   23.7965 H   0  0  0  0  0  0  0  0  0  0  0  0
    5.8414   -3.2955   24.6598 H   0  0  0  0  0  0  0  0  0  0  0  0
    6.5466   -1.7404   27.2394 H   0  0  0  0  0  0  0  0  0  0  0  0
    6.4187   -0.2583   26.3080 H   0  0  0  0  0  0  0  0  0  0  0  0
    9.3265    0.1559   26.7630 H   0  0  0  0  0  0  0  0  0  0  0  0
    9.5212   -1.3961   27.4170 H   0  0  0  0  0  0  0  0  0  0  0  0
    9.1669   -4.6071   25.2757 H   0  0  0  0  0  0  0  0  0  0  0  0
    7.8421   -2.9084   26.3235 H   0  0  0  0  0  0  0  0  0  0  0  0
    7.7343   -0.5591   24.6839 H   0  0  0  0  0  0  0  0  0  0  0  0
    8.4463    0.5721   23.3858 H   0  0  0  0  0  0  0  0  0  0  0  0
   10.1873    0.9715   24.7299 H   0  0  0  0  0  0  0  0  0  0  0  0
    9.7860    2.1510   23.4830 H   0  0  0  0  0  0  0  0  0  0  0  0
   11.8971    3.2524   23.6845 H   0  0  0  0  0  0  0  0  0  0  0  0
   14.2249    3.3533   22.8810 H   0  0  0  0  0  0  0  0  0  0  0  0
   15.2735    1.3659   21.8232 H   0  0  0  0  0  0  0  0  0  0  0  0
   11.6762   -0.8837   22.4840 H   0  0  0  0  0  0  0  0  0  0  0  0
    8.5521   -1.4861   20.6777 H   0  0  0  0  0  0  0  0  0  0  0  0
    7.3090   -1.1183   21.8688 H   0  0  0  0  0  0  0  0  0  0  0  0
    8.1609   -0.9143   18.4018 H   0  0  0  0  0  0  0  0  0  0  0  0
    5.0344    1.4618   17.1322 H   0  0  0  0  0  0  0  0  0  0  0  0
    3.5370    2.6358   18.7702 H   0  0  0  0  0  0  0  0  0  0  0  0
    2.9301    3.1152   21.1061 H   0  0  0  0  0  0  0  0  0  0  0  0
    4.2343    2.1234   22.9646 H   0  0  0  0  0  0  0  0  0  0  0  0
    6.1299    0.6613   22.5184 H   0  0  0  0  0  0  0  0  0  0  0  0
  1  2  2  0
  2  3  1  0
  3  4  2  0
  3  5  1  0
  5  6  1  0
  6  7  1  0
  7  8  1  0
  8  9  1  0
  9 10  2  0
 10 11  1  0
 11 12  2  0
 12 13  1  0
 13 14  2  0
 14 15  1  0
 15 16  1  0
 16 17  1  0
 17 18  2  0
 18 19  1  0
 19 20  2  0
 20 21  1  0
 21 22  1  0
 21 23  2  0
 15 24  1  0
 24 25  2  0
 24 26  1  0
 26 27  1  0
 27 28  2  0
 28 29  1  0
 29 30  2  0
 30 31  1  0
 31 32  2  0
 32 33  1  0
 33 34  2  0
 34 35  1  0
 35 36  2  0
 10  5  1  0
 23 17  1  0
 36 27  1  0
 14  9  1  0
 36 31  1  0
  1 37  1  0
  1 38  1  0
  2 39  1  0
  6 40  1  0
  6 41  1  0
  7 42  1  0
  7 43  1  0
  8 44  1  0
  8 45  1  0
 11 46  1  0
 12 47  1  0
 13 48  1  0
 15 49  1  1
 16 50  1  0
 16 51  1  0
 18 52  1  0
 19 53  1  0
 20 54  1  0
 23 55  1  0
 26 56  1  0
 26 57  1  0
 28 58  1  0
 30 59  1  0
 32 60  1  0
 33 61  1  0
 34 62  1  0
 35 63  1  0
M  CHG  1  15   1
M  END
$$$$
