
     RDKit          3D

 66 71  0  0  0  0  0  0  0  0999 V2000
   -7.4591    3.4761  -21.8643 C   0  0  0  0  0  0  0  0  0  0  0  0
   -8.5156    2.9798  -22.7359 N   0  0  0  0  0  0  0  0  0  0  0  0
   -8.1306    2.2087  -23.7941 C   0  0  0  0  0  0  0  0  0  0  0  0
   -6.9564    1.9401  -24.0071 O   0  0  0  0  0  0  0  0  0  0  0  0
   -9.2291    1.6625  -24.7034 C   0  0  0  0  0  0  0  0  0  0  0  0
   -9.7881    0.4626  -24.1172 N   0  0  0  0  0  0  0  0  0  0  0  0
   -8.9687   -0.7402  -24.0679 C   0  0  0  0  0  0  0  0  0  0  0  0
   -9.2241   -1.5592  -22.7755 C   0  0  2  0  0  0  0  0  0  0  0  0
   -8.6340   -0.7907  -21.5671 C   0  0  0  0  0  0  0  0  0  0  0  0
   -9.1017    0.1929  -21.0299 O   0  0  0  0  0  0  0  0  0  0  0  0
   -7.4489   -1.3906  -21.2010 N   0  0  0  0  0  0  0  0  0  0  0  0
   -6.6324   -0.8248  -20.1866 C   0  0  0  0  0  0  0  0  0  0  0  0
   -6.9448   -1.0514  -18.8698 C   0  0  0  0  0  0  0  0  0  0  0  0
   -6.2472   -0.5679  -17.8125 N   0  0  0  0  0  0  0  0  0  0  0  0
   -5.2038    0.1831  -18.0825 C   0  0  0  0  0  0  0  0  0  0  0  0
   -4.7720    0.5119  -19.3996 C   0  0  0  0  0  0  0  0  0  0  0  0
   -3.6458    1.3493  -19.6282 C   0  0  0  0  0  0  0  0  0  0  0  0
   -3.2585    1.6566  -20.9041 C   0  0  0  0  0  0  0  0  0  0  0  0
   -3.9786    1.1477  -22.0068 C   0  0  0  0  0  0  0  0  0  0  0  0
   -5.0798    0.3455  -21.8144 C   0  0  0  0  0  0  0  0  0  0  0  0
   -5.5013   -0.0034  -20.4997 C   0  0  0  0  0  0  0  0  0  0  0  0
   -5.6428    0.0028  -22.6775 H   0  0  0  0  0  0  0  0  0  0  0  0
   -3.6610    1.3969  -23.0156 H   0  0  0  0  0  0  0  0  0  0  0  0
   -2.3982    2.2973  -21.0763 H   0  0  0  0  0  0  0  0  0  0  0  0
   -3.1095    1.7407  -18.7673 H   0  0  0  0  0  0  0  0  0  0  0  0
   -4.6370    0.5780  -17.2376 H   0  0  0  0  0  0  0  0  0  0  0  0
   -7.8091   -1.6659  -18.6317 H   0  0  0  0  0  0  0  0  0  0  0  0
   -7.0989   -2.5442  -22.0101 C   0  0  0  0  0  0  0  0  0  0  0  0
   -8.4017   -2.8812  -22.7537 C   0  0  2  0  0  0  0  0  0  0  0  0
   -8.1197   -3.5609  -24.0961 C   0  0  0  0  0  0  0  0  0  0  0  0
   -9.3321   -3.9392  -24.7751 N   0  0  0  0  0  0  0  0  0  0  0  0
   -9.3548   -4.5568  -25.9945 C   0  0  0  0  0  0  0  0  0  0  0  0
   -8.1792   -4.8575  -26.7310 C   0  0  0  0  0  0  0  0  0  0  0  0
   -8.2185   -5.4187  -27.9298 N   0  0  0  0  0  0  0  0  0  0  0  0
   -9.4283   -5.7196  -28.4096 C   0  0  0  0  0  0  0  0  0  0  0  0
  -10.5762   -5.4531  -27.6782 C   0  0  0  0  0  0  0  0  0  0  0  0
  -10.5577   -4.8636  -26.4836 N   0  0  0  0  0  0  0  0  0  0  0  0
  -11.5556   -5.7242  -28.0635 H   0  0  0  0  0  0  0  0  0  0  0  0
   -9.4742   -6.1818  -29.3917 H   0  0  0  0  0  0  0  0  0  0  0  0
   -7.1910   -4.6377  -26.3369 H   0  0  0  0  0  0  0  0  0  0  0  0
  -10.2332   -3.8332  -24.3283 H   0  0  0  0  0  0  0  0  0  0  0  0
   -7.4986   -4.4510  -23.9223 H   0  0  0  0  0  0  0  0  0  0  0  0
   -7.5328   -2.8864  -24.7404 H   0  0  0  0  0  0  0  0  0  0  0  0
   -8.9588   -3.5996  -22.1451 H   0  0  0  0  0  0  0  0  0  0  0  0
   -6.2905   -2.3115  -22.7206 H   0  0  0  0  0  0  0  0  0  0  0  0
   -6.7603   -3.3767  -21.3856 H   0  0  0  0  0  0  0  0  0  0  0  0
  -10.7268   -1.7241  -22.6104 C   0  0  0  0  0  0  0  0  0  0  0  0
  -11.2708   -2.7192  -21.7888 C   0  0  0  0  0  0  0  0  0  0  0  0
  -12.6351   -2.7520  -21.5555 C   0  0  0  0  0  0  0  0  0  0  0  0
  -13.3013   -3.8532  -20.4000 Cl  0  0  0  0  0  0  0  0  0  0  0  0
  -13.5172   -1.8625  -22.1611 C   0  0  0  0  0  0  0  0  0  0  0  0
  -12.9902   -0.8753  -22.9595 C   0  0  0  0  0  0  0  0  0  0  0  0
  -11.6149   -0.7812  -23.1477 C   0  0  0  0  0  0  0  0  0  0  0  0
  -11.1259    0.4356  -23.8600 C   0  0  0  0  0  0  0  0  0  0  0  0
  -11.8784    1.3522  -24.1639 O   0  0  0  0  0  0  0  0  0  0  0  0
  -13.6114   -0.1194  -23.4231 H   0  0  0  0  0  0  0  0  0  0  0  0
  -14.5804   -1.9254  -21.9599 H   0  0  0  0  0  0  0  0  0  0  0  0
  -10.6466   -3.4442  -21.2791 H   0  0  0  0  0  0  0  0  0  0  0  0
   -7.9173   -0.4422  -24.1211 H   0  0  0  0  0  0  0  0  0  0  0  0
   -9.1828   -1.3740  -24.9381 H   0  0  0  0  0  0  0  0  0  0  0  0
  -10.0550    2.3635  -24.8497 H   0  0  0  0  0  0  0  0  0  0  0  0
   -8.7979    1.4285  -25.6844 H   0  0  0  0  0  0  0  0  0  0  0  0
   -9.4406    2.8530  -22.3443 H   0  0  0  0  0  0  0  0  0  0  0  0
   -6.7941    4.1430  -22.4189 H   0  0  0  0  0  0  0  0  0  0  0  0
   -7.8809    4.0712  -21.0510 H   0  0  0  0  0  0  0  0  0  0  0  0
   -6.8671    2.6265  -21.4920 H   0  0  0  0  0  0  0  0  0  0  0  0
  1  2  1  0
  2  3  1  0
  3  4  2  0
  3  5  1  0
  5  6  1  0
  6  7  1  0
  8  7  1  6
  8  9  1  0
  9 10  2  0
  9 11  1  0
 11 12  1  0
 12 13  2  0
 13 14  1  0
 14 15  2  0
 15 16  1  0
 16 17  2  0
 17 18  1  0
 18 19  2  0
 19 20  1  0
 20 21  2  0
 20 22  1  0
 19 23  1  0
 18 24  1  0
 17 25  1  0
 15 26  1  0
 13 27  1  0
 11 28  1  0
 28 29  1  0
 29 30  1  0
 30 31  1  0
 31 32  1  0
 32 33  2  0
 33 34  1  0
 34 35  2  0
 35 36  1  0
 36 37  2  0
 36 38  1  0
 35 39  1  0
 33 40  1  0
 31 41  1  0
 30 42  1  0
 30 43  1  0
 29 44  1  1
 28 45  1  0
 28 46  1  0
  8 47  1  0
 47 48  2  0
 48 49  1  0
 49 50  1  0
 49 51  2  0
 51 52  1  0
 52 53  2  0
 53 54  1  0
 54 55  2  0
 52 56  1  0
 51 57  1  0
 48 58  1  0
  7 59  1  0
  7 60  1  0
  5 61  1  0
  5 62  1  0
  2 63  1  0
  1 64  1  0
  1 65  1  0
  1 66  1  0
 54  6  1  0
 29  8  1  0
 37 32  1  0
 53 47  1  0
 21 12  1  0
 21 16  1  0
M  END
>  <cnnaffinities>  (1) 
[6.54157, 7.13621, 6.74452]

>  <score>  (1) 
6.54157

>  <index>  (1) 
75

>  <Smiles>  (1) 
C(N(C(=O)C(N1C([C@@]2(C(=O)N(c3c(nc(c4c(c(c(c(c34)[H])[H])[H])[H])[H])[H])C([C@@]2(C(N(c2c(nc(c(n2)[H])[H])[H])[H])([H])[H])[H])([H])[H])c2c(c(Cl)c(c(c2C1=O)[H])[H])[H])([H])[H])([H])[H])[H])([H])([H])[H]

>  <h>  (1) 
<NA>

>  <Training>  (1) 
True

>  <Success>  (1) 
True

>  <enamine_searched>  (1) 
False

>  <enamine_id>  (1) 
nan

$$$$
