
     RDKit          3D

 59 64  0  0  0  0  0  0  0  0999 V2000
   -8.2509   -3.9938  -23.7248 C   0  0  0  0  0  0  0  0  0  0  0  0
   -8.4515   -3.1554  -22.4664 C   0  0  1  0  0  0  0  0  0  0  0  0
   -7.1145   -2.5357  -22.0073 C   0  0  0  0  0  0  0  0  0  0  0  0
   -7.5242   -1.3860  -21.2268 N   0  0  0  0  0  0  0  0  0  0  0  0
   -6.7310   -0.8091  -20.1986 C   0  0  0  0  0  0  0  0  0  0  0  0
   -7.0345   -1.0526  -18.8787 C   0  0  0  0  0  0  0  0  0  0  0  0
   -6.3136   -0.5941  -17.8230 N   0  0  0  0  0  0  0  0  0  0  0  0
   -5.2616    0.1446  -18.0820 C   0  0  0  0  0  0  0  0  0  0  0  0
   -4.8202    0.4701  -19.3941 C   0  0  0  0  0  0  0  0  0  0  0  0
   -3.6828    1.2927  -19.6142 C   0  0  0  0  0  0  0  0  0  0  0  0
   -3.2719    1.5867  -20.8842 C   0  0  0  0  0  0  0  0  0  0  0  0
   -3.9709    1.0475  -21.9890 C   0  0  0  0  0  0  0  0  0  0  0  0
   -5.0745    0.2474  -21.8012 C   0  0  0  0  0  0  0  0  0  0  0  0
   -5.5511   -0.0427  -20.4950 C   0  0  0  0  0  0  0  0  0  0  0  0
   -5.5982   -0.1727  -22.6566 H   0  0  0  0  0  0  0  0  0  0  0  0
   -3.6448    1.2934  -22.9963 H   0  0  0  0  0  0  0  0  0  0  0  0
   -2.4186    2.2408  -21.0500 H   0  0  0  0  0  0  0  0  0  0  0  0
   -3.1637    1.6936  -18.7468 H   0  0  0  0  0  0  0  0  0  0  0  0
   -4.6966    0.5269  -17.2292 H   0  0  0  0  0  0  0  0  0  0  0  0
   -7.8930   -1.6657  -18.6148 H   0  0  0  0  0  0  0  0  0  0  0  0
   -8.8317   -1.0148  -21.4689 C   0  0  0  0  0  0  0  0  0  0  0  0
   -9.3951   -0.0964  -20.9119 O   0  0  0  0  0  0  0  0  0  0  0  0
   -9.4324   -1.9380  -22.5729 C   0  0  1  0  0  0  0  0  0  0  0  0
   -9.2707   -1.2373  -23.9570 C   0  0  0  0  0  0  0  0  0  0  0  0
  -10.1240   -0.0750  -24.1199 N   0  0  0  0  0  0  0  0  0  0  0  0
   -9.6028    1.1393  -24.7345 C   0  0  0  0  0  0  0  0  0  0  0  0
   -8.7447    1.9107  -23.7922 C   0  0  0  0  0  0  0  0  0  0  0  0
   -9.1210    2.4952  -22.6106 C   0  0  0  0  0  0  0  0  0  0  0  0
   -7.9965    3.2337  -22.2065 C   0  0  0  0  0  0  0  0  0  0  0  0
   -6.9841    3.0851  -23.0528 N   0  0  0  0  0  0  0  0  0  0  0  0
   -7.4552    2.2690  -24.0125 N   0  0  0  0  0  0  0  0  0  0  0  0
   -6.5667    1.7561  -25.0336 C   0  0  0  0  0  0  0  0  0  0  0  0
   -6.7954    2.1518  -26.0310 H   0  0  0  0  0  0  0  0  0  0  0  0
   -6.6302    0.6615  -25.0598 H   0  0  0  0  0  0  0  0  0  0  0  0
   -5.5574    2.0566  -24.7540 H   0  0  0  0  0  0  0  0  0  0  0  0
   -7.8928    3.9125  -21.3728 H   0  0  0  0  0  0  0  0  0  0  0  0
  -10.0607    2.3627  -22.1020 H   0  0  0  0  0  0  0  0  0  0  0  0
   -9.0960    0.9677  -25.6949 H   0  0  0  0  0  0  0  0  0  0  0  0
  -10.4991    1.7172  -24.9604 H   0  0  0  0  0  0  0  0  0  0  0  0
  -11.4306   -0.0893  -23.7168 C   0  0  0  0  0  0  0  0  0  0  0  0
  -12.2231    0.7954  -24.0116 O   0  0  0  0  0  0  0  0  0  0  0  0
  -11.8596   -1.2477  -22.8689 C   0  0  0  0  0  0  0  0  0  0  0  0
  -13.2231   -1.3354  -22.5786 C   0  0  0  0  0  0  0  0  0  0  0  0
  -13.7026   -2.2901  -21.7117 C   0  0  0  0  0  0  0  0  0  0  0  0
  -12.7886   -3.2179  -21.2254 C   0  0  0  0  0  0  0  0  0  0  0  0
  -13.2500   -4.0984  -20.3231 F   0  0  0  0  0  0  0  0  0  0  0  0
  -11.4444   -3.2223  -21.5809 C   0  0  0  0  0  0  0  0  0  0  0  0
  -10.9314   -2.1757  -22.3581 C   0  0  0  0  0  0  0  0  0  0  0  0
  -10.7864   -3.9984  -21.1975 H   0  0  0  0  0  0  0  0  0  0  0  0
  -14.7444   -2.3247  -21.3986 H   0  0  0  0  0  0  0  0  0  0  0  0
  -13.8848   -0.6064  -23.0329 H   0  0  0  0  0  0  0  0  0  0  0  0
   -8.2378   -0.9034  -24.0760 H   0  0  0  0  0  0  0  0  0  0  0  0
   -9.5001   -1.9595  -24.7523 H   0  0  0  0  0  0  0  0  0  0  0  0
   -6.5084   -2.2400  -22.8794 H   0  0  0  0  0  0  0  0  0  0  0  0
   -6.5002   -3.2214  -21.4140 H   0  0  0  0  0  0  0  0  0  0  0  0
   -8.7953   -3.7987  -21.6479 H   0  0  0  0  0  0  0  0  0  0  0  0
   -7.5573   -4.8233  -23.5443 H   0  0  0  0  0  0  0  0  0  0  0  0
   -9.1931   -4.4025  -24.1002 H   0  0  0  0  0  0  0  0  0  0  0  0
   -7.8081   -3.3844  -24.5213 H   0  0  0  0  0  0  0  0  0  0  0  0
  1  2  1  0
  2  3  1  0
  3  4  1  0
  4  5  1  0
  5  6  2  0
  6  7  1  0
  7  8  2  0
  8  9  1  0
  9 10  2  0
 10 11  1  0
 11 12  2  0
 12 13  1  0
 13 14  2  0
 13 15  1  0
 12 16  1  0
 11 17  1  0
 10 18  1  0
  8 19  1  0
  6 20  1  0
  4 21  1  0
 21 22  2  0
 21 23  1  0
 23 24  1  6
 24 25  1  0
 25 26  1  0
 26 27  1  0
 27 28  2  0
 28 29  1  0
 29 30  2  0
 30 31  1  0
 31 32  1  0
 32 33  1  0
 32 34  1  0
 32 35  1  0
 29 36  1  0
 28 37  1  0
 26 38  1  0
 26 39  1  0
 25 40  1  0
 40 41  2  0
 40 42  1  0
 42 43  2  0
 43 44  1  0
 44 45  2  0
 45 46  1  0
 45 47  1  0
 47 48  2  0
 47 49  1  0
 44 50  1  0
 43 51  1  0
 24 52  1  0
 24 53  1  0
  3 54  1  0
  3 55  1  0
  2 56  1  1
  1 57  1  0
  1 58  1  0
  1 59  1  0
 23  2  1  0
 31 27  1  0
 48 42  1  0
 14  5  1  0
 48 23  1  0
 14  9  1  0
M  END
>  <cnnaffinities>  (1) 
[6.67017, 6.41286, 6.50327]

>  <score>  (1) 
6.67017

>  <index>  (1) 
87

>  <Smiles>  (1) 
C([C@]1(C(N(c2c(nc(c3c(c(c(c(c23)[H])[H])[H])[H])[H])[H])C(=O)[C@]21C(N(C(c1c(c(nn1C([H])([H])[H])[H])[H])([H])[H])C(=O)c1c(c(c(F)c(c21)[H])[H])[H])([H])[H])([H])[H])[H])([H])([H])[H]

>  <h>  (1) 
<NA>

>  <Training>  (1) 
True

>  <Success>  (1) 
True

>  <enamine_searched>  (1) 
False

>  <enamine_id>  (1) 
nan

$$$$
