
     RDKit          3D

 46 48  0  0  0  0  0  0  0  0999 V2000
   -8.1633   -4.7066  -26.5354 C   0  0  0  0  0  0  0  0  0  0  0  0
   -8.6597   -4.9679  -25.1129 C   0  0  1  0  0  0  0  0  0  0  0  0
   -7.6025   -5.5337  -24.1726 C   0  0  0  0  0  0  0  0  0  0  0  0
   -6.6322   -4.5304  -23.5519 C   0  0  1  0  0  0  0  0  0  0  0  0
   -5.4548   -4.1814  -24.4614 C   0  0  0  0  0  0  0  0  0  0  0  0
   -4.6949   -3.7266  -23.8478 H   0  0  0  0  0  0  0  0  0  0  0  0
   -5.6833   -3.4447  -25.2298 H   0  0  0  0  0  0  0  0  0  0  0  0
   -5.0207   -5.0704  -24.9368 H   0  0  0  0  0  0  0  0  0  0  0  0
   -7.3284   -3.3427  -23.0086 N   0  0  0  0  0  0  0  0  0  0  0  0
   -6.7260   -2.7049  -21.9383 C   0  0  0  0  0  0  0  0  0  0  0  0
   -5.6818   -3.1192  -21.4562 O   0  0  0  0  0  0  0  0  0  0  0  0
   -7.4074   -1.4700  -21.2819 C   0  0  0  0  0  0  0  0  0  0  0  0
   -6.5798   -0.8338  -20.1851 C   0  0  0  0  0  0  0  0  0  0  0  0
   -6.8723   -1.0479  -18.8622 C   0  0  0  0  0  0  0  0  0  0  0  0
   -6.1948   -0.5429  -17.7926 N   0  0  0  0  0  0  0  0  0  0  0  0
   -5.1612    0.2203  -18.0614 C   0  0  0  0  0  0  0  0  0  0  0  0
   -4.7231    0.5286  -19.3793 C   0  0  0  0  0  0  0  0  0  0  0  0
   -3.5947    1.3571  -19.6217 C   0  0  0  0  0  0  0  0  0  0  0  0
   -3.1921    1.6349  -20.9006 C   0  0  0  0  0  0  0  0  0  0  0  0
   -3.9046    1.0919  -21.9941 C   0  0  0  0  0  0  0  0  0  0  0  0
   -5.0009    0.2901  -21.7856 C   0  0  0  0  0  0  0  0  0  0  0  0
   -5.4460   -0.0136  -20.4726 C   0  0  0  0  0  0  0  0  0  0  0  0
   -5.5335   -0.1236  -22.6370 H   0  0  0  0  0  0  0  0  0  0  0  0
   -3.5808    1.3167  -23.0051 H   0  0  0  0  0  0  0  0  0  0  0  0
   -2.3310    2.2723  -21.0872 H   0  0  0  0  0  0  0  0  0  0  0  0
   -3.0554    1.7726  -18.7720 H   0  0  0  0  0  0  0  0  0  0  0  0
   -4.6031    0.6271  -17.2152 H   0  0  0  0  0  0  0  0  0  0  0  0
   -7.7194   -1.6711  -18.5878 H   0  0  0  0  0  0  0  0  0  0  0  0
   -7.6715   -0.7120  -22.0313 H   0  0  0  0  0  0  0  0  0  0  0  0
   -8.3585   -1.8066  -20.8478 H   0  0  0  0  0  0  0  0  0  0  0  0
   -8.4101   -2.7241  -23.7917 C   0  0  1  0  0  0  0  0  0  0  0  0
   -7.9411   -1.6660  -24.8005 C   0  0  0  0  0  0  0  0  0  0  0  0
   -7.4453   -2.0951  -25.6736 H   0  0  0  0  0  0  0  0  0  0  0  0
   -8.7973   -1.0898  -25.1721 H   0  0  0  0  0  0  0  0  0  0  0  0
   -7.2449   -0.9568  -24.3450 H   0  0  0  0  0  0  0  0  0  0  0  0
   -9.3300   -3.7829  -24.4198 C   0  0  0  0  0  0  0  0  0  0  0  0
   -9.9826   -4.1715  -23.6313 H   0  0  0  0  0  0  0  0  0  0  0  0
   -9.9963   -3.2861  -25.1302 H   0  0  0  0  0  0  0  0  0  0  0  0
   -9.0324   -2.1976  -23.0629 H   0  0  0  0  0  0  0  0  0  0  0  0
   -6.1949   -5.0207  -22.6791 H   0  0  0  0  0  0  0  0  0  0  0  0
   -8.0992   -6.0628  -23.3559 H   0  0  0  0  0  0  0  0  0  0  0  0
   -7.0205   -6.2942  -24.7017 H   0  0  0  0  0  0  0  0  0  0  0  0
   -9.4331   -5.7428  -25.2148 H   0  0  0  0  0  0  0  0  0  0  0  0
   -7.9291   -5.6517  -27.0370 H   0  0  0  0  0  0  0  0  0  0  0  0
   -8.9335   -4.2080  -27.1320 H   0  0  0  0  0  0  0  0  0  0  0  0
   -7.2615   -4.0932  -26.5774 H   0  0  0  0  0  0  0  0  0  0  0  0
  1  2  1  0
  2  3  1  0
  3  4  1  0
  4  5  1  0
  5  6  1  0
  5  7  1  0
  5  8  1  0
  4  9  1  0
  9 10  1  0
 10 11  2  0
 10 12  1  0
 12 13  1  0
 13 14  2  0
 14 15  1  0
 15 16  2  0
 16 17  1  0
 17 18  2  0
 18 19  1  0
 19 20  2  0
 20 21  1  0
 21 22  2  0
 21 23  1  0
 20 24  1  0
 19 25  1  0
 18 26  1  0
 16 27  1  0
 14 28  1  0
 12 29  1  0
 12 30  1  0
  9 31  1  0
 31 32  1  0
 32 33  1  0
 32 34  1  0
 32 35  1  0
 31 36  1  0
 36 37  1  0
 36 38  1  0
 31 39  1  1
  4 40  1  1
  3 41  1  0
  3 42  1  0
  2 43  1  6
  1 44  1  0
  1 45  1  0
  1 46  1  0
 36  2  1  0
 22 13  1  0
 22 17  1  0
M  END
>  <cnnaffinities>  (1) 
[5.17551]

>  <score>  (1) 
5.17551

>  <index>  (1) 
38

>  <Smiles>  (1) 
C([C@]1(C([C@@](C([H])([H])[H])(N(C(=O)C(c2c(nc(c3c(c(c(c(c23)[H])[H])[H])[H])[H])[H])([H])[H])[C@@](C([H])([H])[H])(C1([H])[H])[H])[H])([H])[H])[H])([H])([H])[H]

>  <h>  (1) 
<NA>

>  <Training>  (1) 
True

>  <Success>  (1) 
True

>  <enamine_searched>  (1) 
False

>  <enamine_id>  (1) 
nan

$$$$
