
     RDKit          3D

 64 68  0  0  0  0  0  0  0  0999 V2000
   -7.5200    3.1687  -22.1018 C   0  0  0  0  0  0  0  0  0  0  0  0
   -8.6344    2.5776  -22.8348 N   0  0  0  0  0  0  0  0  0  0  0  0
   -8.3781    1.7494  -23.8913 C   0  0  0  0  0  0  0  0  0  0  0  0
   -7.2418    1.4620  -24.2442 O   0  0  0  0  0  0  0  0  0  0  0  0
   -9.6027    1.2108  -24.6437 C   0  0  0  0  0  0  0  0  0  0  0  0
  -10.1038   -0.0147  -24.0367 N   0  0  0  0  0  0  0  0  0  0  0  0
   -9.2389   -1.1822  -23.9575 C   0  0  0  0  0  0  0  0  0  0  0  0
   -9.3547   -1.9019  -22.5787 C   0  0  2  0  0  0  0  0  0  0  0  0
   -8.7445   -0.9688  -21.4920 C   0  0  0  0  0  0  0  0  0  0  0  0
   -9.2630    0.0066  -20.9893 O   0  0  0  0  0  0  0  0  0  0  0  0
   -7.4710   -1.4110  -21.1904 N   0  0  0  0  0  0  0  0  0  0  0  0
   -6.6900   -0.8145  -20.1681 C   0  0  0  0  0  0  0  0  0  0  0  0
   -6.9912   -1.0507  -18.8484 C   0  0  0  0  0  0  0  0  0  0  0  0
   -6.2786   -0.5726  -17.7982 N   0  0  0  0  0  0  0  0  0  0  0  0
   -5.2310    0.1720  -18.0695 C   0  0  0  0  0  0  0  0  0  0  0  0
   -4.7996    0.4968  -19.3885 C   0  0  0  0  0  0  0  0  0  0  0  0
   -3.6655    1.3210  -19.6295 C   0  0  0  0  0  0  0  0  0  0  0  0
   -3.2910    1.6288  -20.9103 C   0  0  0  0  0  0  0  0  0  0  0  0
   -4.0365    1.1394  -22.0051 C   0  0  0  0  0  0  0  0  0  0  0  0
   -5.1468    0.3528  -21.7970 C   0  0  0  0  0  0  0  0  0  0  0  0
   -5.5517   -0.0020  -20.4804 C   0  0  0  0  0  0  0  0  0  0  0  0
   -5.7467    0.0391  -22.6452 H   0  0  0  0  0  0  0  0  0  0  0  0
   -3.7420    1.3963  -23.0189 H   0  0  0  0  0  0  0  0  0  0  0  0
   -2.4312    2.2684  -21.0891 H   0  0  0  0  0  0  0  0  0  0  0  0
   -3.1237    1.7145  -18.7724 H   0  0  0  0  0  0  0  0  0  0  0  0
   -4.6643    0.5667  -17.2233 H   0  0  0  0  0  0  0  0  0  0  0  0
   -7.8439   -1.6733  -18.5887 H   0  0  0  0  0  0  0  0  0  0  0  0
   -7.0462   -2.5505  -21.9719 C   0  0  0  0  0  0  0  0  0  0  0  0
   -8.3876   -3.1224  -22.4708 C   0  0  2  0  0  0  0  0  0  0  0  0
   -8.2432   -3.9646  -23.7349 C   0  0  0  0  0  0  0  0  0  0  0  0
   -7.3732   -5.4970  -23.4487 S   0  0  0  0  0  0  0  0  0  0  0  0
   -5.9731   -5.2175  -23.1610 O   0  0  0  0  0  0  0  0  0  0  0  0
   -8.1633   -6.3174  -22.5414 O   0  0  0  0  0  0  0  0  0  0  0  0
   -7.3867   -6.1404  -24.9806 N   0  0  0  0  0  0  0  0  0  0  0  0
   -8.6020   -6.7739  -25.4750 C   0  0  0  0  0  0  0  0  0  0  0  0
   -9.3134   -6.0042  -25.7872 H   0  0  0  0  0  0  0  0  0  0  0  0
   -9.0888   -7.4199  -24.7368 H   0  0  0  0  0  0  0  0  0  0  0  0
   -8.3284   -7.3574  -26.3561 H   0  0  0  0  0  0  0  0  0  0  0  0
   -6.5248   -6.6528  -25.1184 H   0  0  0  0  0  0  0  0  0  0  0  0
   -9.2264   -4.2477  -24.1242 H   0  0  0  0  0  0  0  0  0  0  0  0
   -7.6640   -3.4451  -24.5067 H   0  0  0  0  0  0  0  0  0  0  0  0
   -8.7635   -3.7677  -21.6735 H   0  0  0  0  0  0  0  0  0  0  0  0
   -6.4780   -3.2669  -21.3734 H   0  0  0  0  0  0  0  0  0  0  0  0
   -6.3962   -2.2457  -22.8068 H   0  0  0  0  0  0  0  0  0  0  0  0
  -10.8448   -2.1701  -22.3364 C   0  0  0  0  0  0  0  0  0  0  0  0
  -11.3217   -3.2285  -21.5480 C   0  0  0  0  0  0  0  0  0  0  0  0
  -12.6656   -3.2538  -21.1938 C   0  0  0  0  0  0  0  0  0  0  0  0
  -13.1232   -4.0991  -20.2531 F   0  0  0  0  0  0  0  0  0  0  0  0
  -13.6023   -2.3735  -21.7088 C   0  0  0  0  0  0  0  0  0  0  0  0
  -13.1600   -1.3822  -22.5509 C   0  0  0  0  0  0  0  0  0  0  0  0
  -11.7983   -1.2601  -22.8294 C   0  0  0  0  0  0  0  0  0  0  0  0
  -11.4020   -0.0536  -23.6229 C   0  0  0  0  0  0  0  0  0  0  0  0
  -12.1967    0.8464  -23.8659 O   0  0  0  0  0  0  0  0  0  0  0  0
  -13.8430   -0.6546  -22.9747 H   0  0  0  0  0  0  0  0  0  0  0  0
  -14.6329   -2.4618  -21.3873 H   0  0  0  0  0  0  0  0  0  0  0  0
  -10.6381   -3.9713  -21.1472 H   0  0  0  0  0  0  0  0  0  0  0  0
   -8.2213   -0.8161  -24.1159 H   0  0  0  0  0  0  0  0  0  0  0  0
   -9.4904   -1.8781  -24.7723 H   0  0  0  0  0  0  0  0  0  0  0  0
  -10.4375    1.9166  -24.6227 H   0  0  0  0  0  0  0  0  0  0  0  0
   -9.3145    1.0455  -25.6936 H   0  0  0  0  0  0  0  0  0  0  0  0
   -9.5162    2.4910  -22.3460 H   0  0  0  0  0  0  0  0  0  0  0  0
   -6.9967    2.4343  -21.4691 H   0  0  0  0  0  0  0  0  0  0  0  0
   -6.7865    3.5185  -22.8340 H   0  0  0  0  0  0  0  0  0  0  0  0
   -7.8764    3.9992  -21.4739 H   0  0  0  0  0  0  0  0  0  0  0  0
  1  2  1  0
  2  3  1  0
  3  4  2  0
  3  5  1  0
  5  6  1  0
  6  7  1  0
  8  7  1  6
  8  9  1  0
  9 10  2  0
  9 11  1  0
 11 12  1  0
 12 13  2  0
 13 14  1  0
 14 15  2  0
 15 16  1  0
 16 17  2  0
 17 18  1  0
 18 19  2  0
 19 20  1  0
 20 21  2  0
 20 22  1  0
 19 23  1  0
 18 24  1  0
 17 25  1  0
 15 26  1  0
 13 27  1  0
 11 28  1  0
 28 29  1  0
 29 30  1  0
 30 31  1  0
 31 32  2  0
 31 33  2  0
 31 34  1  0
 34 35  1  0
 35 36  1  0
 35 37  1  0
 35 38  1  0
 34 39  1  0
 30 40  1  0
 30 41  1  0
 29 42  1  1
 28 43  1  0
 28 44  1  0
  8 45  1  0
 45 46  2  0
 46 47  1  0
 47 48  1  0
 47 49  2  0
 49 50  1  0
 50 51  2  0
 51 52  1  0
 52 53  2  0
 50 54  1  0
 49 55  1  0
 46 56  1  0
  7 57  1  0
  7 58  1  0
  5 59  1  0
  5 60  1  0
  2 61  1  0
  1 62  1  0
  1 63  1  0
  1 64  1  0
 52  6  1  0
 29  8  1  0
 51 45  1  0
 21 12  1  0
 21 16  1  0
M  END
>  <cnnaffinities>  (1) 
[6.90921, 6.50117, 6.79722, 6.79824, 6.71337, 6.89979, 6.69788]

>  <score>  (1) 
6.90921

>  <index>  (1) 
90

>  <Smiles>  (1) 
C(N(C(=O)C(N1C([C@@]2(C(=O)N(c3c(nc(c4c(c(c(c(c34)[H])[H])[H])[H])[H])[H])C([C@@]2(C(S(=O)(=O)N(C([H])([H])[H])[H])([H])[H])[H])([H])[H])c2c(c(F)c(c(c2C1=O)[H])[H])[H])([H])[H])([H])[H])[H])([H])([H])[H]

>  <h>  (1) 
<NA>

>  <Training>  (1) 
True

>  <Success>  (1) 
True

>  <enamine_searched>  (1) 
False

>  <enamine_id>  (1) 
nan

$$$$
