
     RDKit          3D

 59 63  0  0  0  0  0  0  0  0999 V2000
   -7.7356    4.3791  -22.3619 C   0  0  0  0  0  0  0  0  0  0  0  0
   -6.8137    3.4529  -23.1303 C   0  0  0  0  0  0  0  0  0  0  0  0
   -7.6002    2.6965  -24.0901 N   0  0  0  0  0  0  0  0  0  0  0  0
   -6.9989    1.6991  -24.7839 C   0  0  0  0  0  0  0  0  0  0  0  0
   -5.7979    1.4811  -24.6986 O   0  0  0  0  0  0  0  0  0  0  0  0
   -7.9088    0.8685  -25.6898 C   0  0  0  0  0  0  0  0  0  0  0  0
   -8.8572    0.1016  -24.9042 N   0  0  0  0  0  0  0  0  0  0  0  0
   -8.4632   -1.1926  -24.3756 C   0  0  0  0  0  0  0  0  0  0  0  0
   -9.0283   -1.4601  -22.9541 C   0  0  2  0  0  0  0  0  0  0  0  0
   -8.3053   -0.5440  -21.9385 C   0  0  0  0  0  0  0  0  0  0  0  0
   -8.4227    0.6618  -21.8300 O   0  0  0  0  0  0  0  0  0  0  0  0
   -7.4644   -1.3230  -21.1820 N   0  0  0  0  0  0  0  0  0  0  0  0
   -6.6284   -0.7933  -20.1753 C   0  0  0  0  0  0  0  0  0  0  0  0
   -6.9135   -1.0653  -18.8624 C   0  0  0  0  0  0  0  0  0  0  0  0
   -6.2278   -0.5735  -17.8038 N   0  0  0  0  0  0  0  0  0  0  0  0
   -5.1972    0.1955  -18.0745 C   0  0  0  0  0  0  0  0  0  0  0  0
   -4.7629    0.5152  -19.3927 C   0  0  0  0  0  0  0  0  0  0  0  0
   -3.6285    1.3391  -19.6221 C   0  0  0  0  0  0  0  0  0  0  0  0
   -3.2186    1.6157  -20.8971 C   0  0  0  0  0  0  0  0  0  0  0  0
   -3.9172    1.0834  -22.0034 C   0  0  0  0  0  0  0  0  0  0  0  0
   -5.0176    0.2842  -21.8102 C   0  0  0  0  0  0  0  0  0  0  0  0
   -5.4816   -0.0055  -20.4931 C   0  0  0  0  0  0  0  0  0  0  0  0
   -5.5358   -0.1138  -22.6768 H   0  0  0  0  0  0  0  0  0  0  0  0
   -3.6038    1.3278  -23.0149 H   0  0  0  0  0  0  0  0  0  0  0  0
   -2.3489    2.2424  -21.0680 H   0  0  0  0  0  0  0  0  0  0  0  0
   -3.1022    1.7435  -18.7623 H   0  0  0  0  0  0  0  0  0  0  0  0
   -4.6383    0.6060  -17.2324 H   0  0  0  0  0  0  0  0  0  0  0  0
   -7.7664   -1.7001  -18.6269 H   0  0  0  0  0  0  0  0  0  0  0  0
   -7.4377   -2.7175  -21.5538 C   0  0  0  0  0  0  0  0  0  0  0  0
   -8.6703   -2.8919  -22.4479 C   0  0  2  0  0  0  0  0  0  0  0  0
   -8.4474   -3.9568  -23.5142 C   0  0  0  0  0  0  0  0  0  0  0  0
   -8.2614   -4.9257  -23.0422 H   0  0  0  0  0  0  0  0  0  0  0  0
   -7.5739   -3.7147  -24.1306 H   0  0  0  0  0  0  0  0  0  0  0  0
   -9.3149   -4.0590  -24.1732 H   0  0  0  0  0  0  0  0  0  0  0  0
   -9.4878   -3.2364  -21.8101 H   0  0  0  0  0  0  0  0  0  0  0  0
   -6.5099   -2.9841  -22.0828 H   0  0  0  0  0  0  0  0  0  0  0  0
   -7.4892   -3.3448  -20.6643 H   0  0  0  0  0  0  0  0  0  0  0  0
  -10.5131   -1.1506  -22.9832 C   0  0  0  0  0  0  0  0  0  0  0  0
  -11.4056   -1.7649  -22.1042 C   0  0  0  0  0  0  0  0  0  0  0  0
  -12.7587   -1.4876  -22.1684 C   0  0  0  0  0  0  0  0  0  0  0  0
  -13.8211   -2.4319  -21.1667 Cl  0  0  0  0  0  0  0  0  0  0  0  0
  -13.2787   -0.5045  -23.0110 C   0  0  0  0  0  0  0  0  0  0  0  0
  -12.3818    0.1787  -23.8115 C   0  0  0  0  0  0  0  0  0  0  0  0
  -11.0239   -0.1556  -23.8298 C   0  0  0  0  0  0  0  0  0  0  0  0
  -10.1170    0.5990  -24.7540 C   0  0  0  0  0  0  0  0  0  0  0  0
  -10.4747    1.6243  -25.3186 O   0  0  0  0  0  0  0  0  0  0  0  0
  -12.7049    1.0183  -24.4180 H   0  0  0  0  0  0  0  0  0  0  0  0
  -14.3458   -0.2771  -23.0359 H   0  0  0  0  0  0  0  0  0  0  0  0
  -11.0682   -2.4669  -21.3466 H   0  0  0  0  0  0  0  0  0  0  0  0
   -7.3724   -1.2474  -24.3363 H   0  0  0  0  0  0  0  0  0  0  0  0
   -8.8186   -1.9774  -25.0524 H   0  0  0  0  0  0  0  0  0  0  0  0
   -7.2882    0.1938  -26.2834 H   0  0  0  0  0  0  0  0  0  0  0  0
   -8.4718    1.5171  -26.3694 H   0  0  0  0  0  0  0  0  0  0  0  0
   -8.6038    2.7048  -23.9574 H   0  0  0  0  0  0  0  0  0  0  0  0
   -6.3071    2.7492  -22.4511 H   0  0  0  0  0  0  0  0  0  0  0  0
   -6.0377    3.9998  -23.6774 H   0  0  0  0  0  0  0  0  0  0  0  0
   -8.4917    3.7712  -21.8628 H   0  0  0  0  0  0  0  0  0  0  0  0
   -8.2352    5.0952  -23.0263 H   0  0  0  0  0  0  0  0  0  0  0  0
   -7.1922    4.9356  -21.5934 H   0  0  0  0  0  0  0  0  0  0  0  0
  1  2  1  0
  2  3  1  0
  3  4  1  0
  4  5  2  0
  4  6  1  0
  6  7  1  0
  7  8  1  0
  9  8  1  6
  9 10  1  0
 10 11  2  0
 10 12  1  0
 12 13  1  0
 13 14  2  0
 14 15  1  0
 15 16  2  0
 16 17  1  0
 17 18  2  0
 18 19  1  0
 19 20  2  0
 20 21  1  0
 21 22  2  0
 21 23  1  0
 20 24  1  0
 19 25  1  0
 18 26  1  0
 16 27  1  0
 14 28  1  0
 12 29  1  0
 29 30  1  0
 30 31  1  0
 31 32  1  0
 31 33  1  0
 31 34  1  0
 30 35  1  1
 29 36  1  0
 29 37  1  0
  9 38  1  0
 38 39  2  0
 39 40  1  0
 40 41  1  0
 40 42  2  0
 42 43  1  0
 43 44  2  0
 44 45  1  0
 45 46  2  0
 43 47  1  0
 42 48  1  0
 39 49  1  0
  8 50  1  0
  8 51  1  0
  6 52  1  0
  6 53  1  0
  3 54  1  0
  2 55  1  0
  2 56  1  0
  1 57  1  0
  1 58  1  0
  1 59  1  0
 45  7  1  0
 30  9  1  0
 44 38  1  0
 22 13  1  0
 22 17  1  0
M  END
>  <cnnaffinities>  (1) 
[6.54561]

>  <score>  (1) 
6.54561

>  <index>  (1) 
53

>  <Smiles>  (1) 
C(C(N(C(=O)C(N1C([C@@]2(C(=O)N(c3c(nc(c4c(c(c(c(c34)[H])[H])[H])[H])[H])[H])C([C@@]2(C([H])([H])[H])[H])([H])[H])c2c(c(Cl)c(c(c2C1=O)[H])[H])[H])([H])[H])([H])[H])[H])([H])[H])([H])([H])[H]

>  <h>  (1) 
<NA>

>  <Training>  (1) 
True

>  <Success>  (1) 
True

>  <enamine_searched>  (1) 
False

>  <enamine_id>  (1) 
nan

$$$$
