
     RDKit          3D

 62 67  0  0  0  0  0  0  0  0999 V2000
  -11.5562    2.4746  -22.0150 C   0  0  0  0  0  0  0  0  0  0  0  0
  -11.8686    2.4136  -21.9778 C   0  0  0  0  0  0  0  0  0  0  0  0
  -11.9561    2.8168  -23.3753 N   0  0  0  0  0  0  0  0  0  0  0  0
  -12.8226    3.7807  -23.6464 N   0  0  0  0  0  0  0  0  0  0  0  0
  -12.6255    4.0946  -24.9278 C   0  0  0  0  0  0  0  0  0  0  0  0
  -11.5806    3.3250  -25.4689 C   0  0  0  0  0  0  0  0  0  0  0  0
  -11.2133    2.4640  -24.4483 C   0  0  0  0  0  0  0  0  0  0  0  0
  -10.1676    1.3733  -24.4557 C   0  0  0  0  0  0  0  0  0  0  0  0
  -10.5980   -0.0154  -24.2220 N   0  0  0  0  0  0  0  0  0  0  0  0
   -9.5523   -1.0267  -24.0581 C   0  0  0  0  0  0  0  0  0  0  0  0
   -9.6726   -1.8127  -22.7169 C   0  0  2  0  0  0  0  0  0  0  0  0
   -9.0819   -0.9265  -21.5851 C   0  0  0  0  0  0  0  0  0  0  0  0
   -9.6239   -0.0011  -21.0151 O   0  0  0  0  0  0  0  0  0  0  0  0
   -7.7844   -1.3191  -21.3438 N   0  0  0  0  0  0  0  0  0  0  0  0
   -7.0288   -0.7717  -20.2762 C   0  0  0  0  0  0  0  0  0  0  0  0
   -7.4136   -0.9634  -18.9718 C   0  0  0  0  0  0  0  0  0  0  0  0
   -6.6997   -0.5547  -17.8905 N   0  0  0  0  0  0  0  0  0  0  0  0
   -5.5788    0.0904  -18.1122 C   0  0  0  0  0  0  0  0  0  0  0  0
   -5.0789    0.3925  -19.4095 C   0  0  0  0  0  0  0  0  0  0  0  0
   -3.8770    1.1244  -19.6027 C   0  0  0  0  0  0  0  0  0  0  0  0
   -3.4427    1.4177  -20.8665 C   0  0  0  0  0  0  0  0  0  0  0  0
   -4.1851    0.9967  -21.9928 C   0  0  0  0  0  0  0  0  0  0  0  0
   -5.3490    0.2853  -21.8291 C   0  0  0  0  0  0  0  0  0  0  0  0
   -5.8214   -0.0426  -20.5318 C   0  0  0  0  0  0  0  0  0  0  0  0
   -5.9273   -0.0191  -22.6953 H   0  0  0  0  0  0  0  0  0  0  0  0
   -3.8380    1.2411  -22.9935 H   0  0  0  0  0  0  0  0  0  0  0  0
   -2.5283    1.9852  -21.0156 H   0  0  0  0  0  0  0  0  0  0  0  0
   -3.3215    1.4529  -18.7267 H   0  0  0  0  0  0  0  0  0  0  0  0
   -5.0043    0.4142  -17.2418 H   0  0  0  0  0  0  0  0  0  0  0  0
   -8.3371   -1.4905  -18.7440 H   0  0  0  0  0  0  0  0  0  0  0  0
   -7.3617   -2.4439  -22.1623 C   0  0  0  0  0  0  0  0  0  0  0  0
   -8.7051   -3.0260  -22.6197 C   0  0  2  0  0  0  0  0  0  0  0  0
   -8.6609   -3.9728  -23.8104 C   0  0  0  0  0  0  0  0  0  0  0  0
   -8.2431   -3.5008  -24.7068 H   0  0  0  0  0  0  0  0  0  0  0  0
   -8.0538   -4.8567  -23.5813 H   0  0  0  0  0  0  0  0  0  0  0  0
   -9.6734   -4.3165  -24.0520 H   0  0  0  0  0  0  0  0  0  0  0  0
   -9.0641   -3.5906  -21.7575 H   0  0  0  0  0  0  0  0  0  0  0  0
   -6.7394   -2.1350  -23.0149 H   0  0  0  0  0  0  0  0  0  0  0  0
   -6.7750   -3.1521  -21.5668 H   0  0  0  0  0  0  0  0  0  0  0  0
  -11.1318   -2.1814  -22.4893 C   0  0  0  0  0  0  0  0  0  0  0  0
  -11.5095   -3.1714  -21.5722 C   0  0  0  0  0  0  0  0  0  0  0  0
  -12.8300   -3.3004  -21.1949 C   0  0  0  0  0  0  0  0  0  0  0  0
  -13.1560   -4.0932  -20.1639 F   0  0  0  0  0  0  0  0  0  0  0  0
  -13.8582   -2.5894  -21.7919 C   0  0  0  0  0  0  0  0  0  0  0  0
  -13.5107   -1.6902  -22.7763 C   0  0  0  0  0  0  0  0  0  0  0  0
  -12.1694   -1.4771  -23.1032 C   0  0  0  0  0  0  0  0  0  0  0  0
  -11.9141   -0.3577  -24.0522 C   0  0  0  0  0  0  0  0  0  0  0  0
  -12.8611    0.2626  -24.5067 O   0  0  0  0  0  0  0  0  0  0  0  0
  -14.2494   -1.0882  -23.2880 H   0  0  0  0  0  0  0  0  0  0  0  0
  -14.8776   -2.7138  -21.4513 H   0  0  0  0  0  0  0  0  0  0  0  0
  -10.7772   -3.8193  -21.1030 H   0  0  0  0  0  0  0  0  0  0  0  0
   -8.5844   -0.5135  -24.1090 H   0  0  0  0  0  0  0  0  0  0  0  0
   -9.5904   -1.7395  -24.8952 H   0  0  0  0  0  0  0  0  0  0  0  0
   -9.6652    1.4296  -25.4252 H   0  0  0  0  0  0  0  0  0  0  0  0
   -9.3898    1.6049  -23.7067 H   0  0  0  0  0  0  0  0  0  0  0  0
  -11.1188    3.4231  -26.4491 H   0  0  0  0  0  0  0  0  0  0  0  0
  -13.2312    4.8707  -25.3865 H   0  0  0  0  0  0  0  0  0  0  0  0
  -11.4765    1.2851  -22.2255 H   0  0  0  0  0  0  0  0  0  0  0  0
  -13.3611    2.0517  -21.5770 H   0  0  0  0  0  0  0  0  0  0  0  0
  -11.8685    3.5811  -21.6132 H   0  0  0  0  0  0  0  0  0  0  0  0
   -9.9942    2.7020  -22.0845 H   0  0  0  0  0  0  0  0  0  0  0  0
  -11.4623    2.1729  -20.7856 H   0  0  0  0  0  0  0  0  0  0  0  0
  1  2  1  0
  2  3  1  0
  3  4  1  0
  4  5  2  0
  5  6  1  0
  6  7  2  0
  7  8  1  0
  8  9  1  0
  9 10  1  0
 11 10  1  6
 11 12  1  0
 12 13  2  0
 12 14  1  0
 14 15  1  0
 15 16  2  0
 16 17  1  0
 17 18  2  0
 18 19  1  0
 19 20  2  0
 20 21  1  0
 21 22  2  0
 22 23  1  0
 23 24  2  0
 23 25  1  0
 22 26  1  0
 21 27  1  0
 20 28  1  0
 18 29  1  0
 16 30  1  0
 14 31  1  0
 31 32  1  0
 32 33  1  0
 33 34  1  0
 33 35  1  0
 33 36  1  0
 32 37  1  1
 31 38  1  0
 31 39  1  0
 11 40  1  0
 40 41  2  0
 41 42  1  0
 42 43  1  0
 42 44  2  0
 44 45  1  0
 45 46  2  0
 46 47  1  0
 47 48  2  0
 45 49  1  0
 44 50  1  0
 41 51  1  0
 10 52  1  0
 10 53  1  0
  8 54  1  0
  8 55  1  0
  6 56  1  0
  5 57  1  0
  2 58  1  0
  2 59  1  0
  1 60  1  0
  1 61  1  0
  1 62  1  0
  7  3  1  0
 47  9  1  0
 32 11  1  0
 46 40  1  0
 24 15  1  0
 24 19  1  0
M  END
>  <cnnaffinities>  (1) 
[6.84524]

>  <score>  (1) 
6.84524

>  <index>  (1) 
93

>  <Smiles>  (1) 
C(C(n1nc(c(c1C(N1C([C@@]2(C(=O)N(c3c(nc(c4c(c(c(c(c34)[H])[H])[H])[H])[H])[H])C([C@@]2(C([H])([H])[H])[H])([H])[H])c2c(c(F)c(c(c2C1=O)[H])[H])[H])([H])[H])([H])[H])[H])[H])([H])[H])([H])([H])[H]

>  <h>  (1) 
<NA>

>  <Training>  (1) 
True

>  <Success>  (1) 
True

>  <enamine_searched>  (1) 
False

>  <enamine_id>  (1) 
nan

$$$$
