
     RDKit          3D

 63 68  0  0  0  0  0  0  0  0999 V2000
   -8.2810   -3.6238  -23.9521 C   0  0  0  0  0  0  0  0  0  0  0  0
   -8.4554   -2.8843  -22.6296 C   0  0  1  0  0  0  0  0  0  0  0  0
   -7.1203   -2.4434  -21.9937 C   0  0  0  0  0  0  0  0  0  0  0  0
   -7.5047   -1.2968  -21.1943 N   0  0  0  0  0  0  0  0  0  0  0  0
   -6.6953   -0.7444  -20.1646 C   0  0  0  0  0  0  0  0  0  0  0  0
   -6.9813   -1.0135  -18.8493 C   0  0  0  0  0  0  0  0  0  0  0  0
   -6.2609   -0.5537  -17.7962 N   0  0  0  0  0  0  0  0  0  0  0  0
   -5.2230    0.2069  -18.0645 C   0  0  0  0  0  0  0  0  0  0  0  0
   -4.7995    0.5542  -19.3794 C   0  0  0  0  0  0  0  0  0  0  0  0
   -3.6773    1.3930  -19.6250 C   0  0  0  0  0  0  0  0  0  0  0  0
   -3.3041    1.7031  -20.9062 C   0  0  0  0  0  0  0  0  0  0  0  0
   -4.0285    1.1862  -22.0023 C   0  0  0  0  0  0  0  0  0  0  0  0
   -5.1238    0.3793  -21.7926 C   0  0  0  0  0  0  0  0  0  0  0  0
   -5.5439    0.0475  -20.4741 C   0  0  0  0  0  0  0  0  0  0  0  0
   -5.7046    0.0357  -22.6429 H   0  0  0  0  0  0  0  0  0  0  0  0
   -3.7240    1.4274  -23.0166 H   0  0  0  0  0  0  0  0  0  0  0  0
   -2.4712    2.3805  -21.0874 H   0  0  0  0  0  0  0  0  0  0  0  0
   -3.1363    1.7893  -18.7710 H   0  0  0  0  0  0  0  0  0  0  0  0
   -4.6502    0.5879  -17.2167 H   0  0  0  0  0  0  0  0  0  0  0  0
   -7.8333   -1.6431  -18.5999 H   0  0  0  0  0  0  0  0  0  0  0  0
   -8.7247   -0.7546  -21.5447 C   0  0  0  0  0  0  0  0  0  0  0  0
   -9.2028    0.2438  -21.0489 O   0  0  0  0  0  0  0  0  0  0  0  0
   -9.3525   -1.6098  -22.6809 C   0  0  1  0  0  0  0  0  0  0  0  0
   -9.1872   -0.8599  -24.0383 C   0  0  0  0  0  0  0  0  0  0  0  0
  -10.0572    0.2980  -24.1654 N   0  0  0  0  0  0  0  0  0  0  0  0
   -9.5276    1.4789  -24.8294 C   0  0  0  0  0  0  0  0  0  0  0  0
   -8.3536    2.0253  -24.0103 C   0  0  0  0  0  0  0  0  0  0  0  0
   -7.1952    1.7175  -24.2592 O   0  0  0  0  0  0  0  0  0  0  0  0
   -8.6778    2.8338  -22.9585 N   0  0  0  0  0  0  0  0  0  0  0  0
   -7.6371    3.1425  -21.9876 C   0  0  0  0  0  0  0  0  0  0  0  0
   -6.6078    4.1606  -22.4130 C   0  0  0  0  0  0  0  0  0  0  0  0
   -6.4734    5.4112  -21.5868 C   0  0  0  0  0  0  0  0  0  0  0  0
   -5.4620    4.3086  -21.4561 C   0  0  0  0  0  0  0  0  0  0  0  0
   -4.4536    4.4493  -21.8326 H   0  0  0  0  0  0  0  0  0  0  0  0
   -5.5443    3.7072  -20.5560 H   0  0  0  0  0  0  0  0  0  0  0  0
   -7.1401    5.5916  -20.7444 H   0  0  0  0  0  0  0  0  0  0  0  0
   -6.1655    6.3208  -22.0839 H   0  0  0  0  0  0  0  0  0  0  0  0
   -6.4167    4.2441  -23.4741 H   0  0  0  0  0  0  0  0  0  0  0  0
   -8.0969    3.5649  -21.0955 H   0  0  0  0  0  0  0  0  0  0  0  0
   -7.1519    2.2017  -21.6889 H   0  0  0  0  0  0  0  0  0  0  0  0
   -9.6260    2.8227  -22.5995 H   0  0  0  0  0  0  0  0  0  0  0  0
  -10.3492    2.1968  -24.9098 H   0  0  0  0  0  0  0  0  0  0  0  0
   -9.1498    1.2402  -25.8320 H   0  0  0  0  0  0  0  0  0  0  0  0
  -11.3384    0.3171  -23.7047 C   0  0  0  0  0  0  0  0  0  0  0  0
  -12.1022    1.2475  -23.9241 O   0  0  0  0  0  0  0  0  0  0  0  0
  -11.7681   -0.8744  -22.9056 C   0  0  0  0  0  0  0  0  0  0  0  0
  -13.1278   -0.9597  -22.6068 C   0  0  0  0  0  0  0  0  0  0  0  0
  -13.6153   -1.9952  -21.8433 C   0  0  0  0  0  0  0  0  0  0  0  0
  -12.7098   -2.9426  -21.3852 C   0  0  0  0  0  0  0  0  0  0  0  0
  -13.1843   -3.8971  -20.5672 F   0  0  0  0  0  0  0  0  0  0  0  0
  -11.3594   -2.9000  -21.6911 C   0  0  0  0  0  0  0  0  0  0  0  0
  -10.8482   -1.8313  -22.4468 C   0  0  0  0  0  0  0  0  0  0  0  0
  -10.7209   -3.6806  -21.2899 H   0  0  0  0  0  0  0  0  0  0  0  0
  -14.6630   -2.0742  -21.5757 H   0  0  0  0  0  0  0  0  0  0  0  0
  -13.7823   -0.1818  -22.9834 H   0  0  0  0  0  0  0  0  0  0  0  0
   -8.1587   -0.5006  -24.1311 H   0  0  0  0  0  0  0  0  0  0  0  0
   -9.3926   -1.5458  -24.8702 H   0  0  0  0  0  0  0  0  0  0  0  0
   -6.3721   -2.1733  -22.7567 H   0  0  0  0  0  0  0  0  0  0  0  0
   -6.6736   -3.2256  -21.3677 H   0  0  0  0  0  0  0  0  0  0  0  0
   -8.9182   -3.5623  -21.9088 H   0  0  0  0  0  0  0  0  0  0  0  0
   -7.7200   -3.0139  -24.6705 H   0  0  0  0  0  0  0  0  0  0  0  0
   -9.2527   -3.8578  -24.4003 H   0  0  0  0  0  0  0  0  0  0  0  0
   -7.7313   -4.5612  -23.8209 H   0  0  0  0  0  0  0  0  0  0  0  0
  1  2  1  0
  2  3  1  0
  3  4  1  0
  4  5  1  0
  5  6  2  0
  6  7  1  0
  7  8  2  0
  8  9  1  0
  9 10  2  0
 10 11  1  0
 11 12  2  0
 12 13  1  0
 13 14  2  0
 13 15  1  0
 12 16  1  0
 11 17  1  0
 10 18  1  0
  8 19  1  0
  6 20  1  0
  4 21  1  0
 21 22  2  0
 21 23  1  0
 23 24  1  6
 24 25  1  0
 25 26  1  0
 26 27  1  0
 27 28  2  0
 27 29  1  0
 29 30  1  0
 30 31  1  0
 31 32  1  0
 32 33  1  0
 33 34  1  0
 33 35  1  0
 32 36  1  0
 32 37  1  0
 31 38  1  0
 30 39  1  0
 30 40  1  0
 29 41  1  0
 26 42  1  0
 26 43  1  0
 25 44  1  0
 44 45  2  0
 44 46  1  0
 46 47  2  0
 47 48  1  0
 48 49  2  0
 49 50  1  0
 49 51  1  0
 51 52  2  0
 51 53  1  0
 48 54  1  0
 47 55  1  0
 24 56  1  0
 24 57  1  0
  3 58  1  0
  3 59  1  0
  2 60  1  1
  1 61  1  0
  1 62  1  0
  1 63  1  0
 23  2  1  0
 33 31  1  0
 52 46  1  0
 14  5  1  0
 52 23  1  0
 14  9  1  0
M  END
>  <cnnaffinities>  (1) 
[6.69656]

>  <score>  (1) 
6.69656

>  <index>  (1) 
21

>  <Smiles>  (1) 
C([C@]1(C(N(c2c(nc(c3c(c(c(c(c23)[H])[H])[H])[H])[H])[H])C(=O)[C@]21C(N(C(C(=O)N(C(C1(C(C1([H])[H])([H])[H])[H])([H])[H])[H])([H])[H])C(=O)c1c(c(c(F)c(c21)[H])[H])[H])([H])[H])([H])[H])[H])([H])([H])[H]

>  <h>  (1) 
<NA>

>  <Training>  (1) 
True

>  <Success>  (1) 
True

>  <enamine_searched>  (1) 
False

>  <enamine_id>  (1) 
nan

$$$$
