
     RDKit          3D

 76 82  0  0  0  0  0  0  0  0999 V2000
  -12.1996    0.9990  -24.2700 O   0  0  0  0  0  0  0  0  0  0  0  0
  -11.5147    0.0312  -23.9527 C   0  0  0  0  0  0  0  0  0  0  0  0
  -12.0364   -1.0255  -23.0506 C   0  0  0  0  0  0  0  0  0  0  0  0
  -13.3922   -0.9353  -22.7577 C   0  0  0  0  0  0  0  0  0  0  0  0
  -13.9880   -1.8703  -21.9513 C   0  0  0  0  0  0  0  0  0  0  0  0
  -13.1900   -2.8928  -21.4444 C   0  0  0  0  0  0  0  0  0  0  0  0
  -13.9559   -4.0617  -20.4190 Cl  0  0  0  0  0  0  0  0  0  0  0  0
  -11.8223   -2.9627  -21.6862 C   0  0  0  0  0  0  0  0  0  0  0  0
  -11.1945   -1.9992  -22.4823 C   0  0  0  0  0  0  0  0  0  0  0  0
   -9.6777   -1.8885  -22.6613 C   0  0  1  0  0  0  0  0  0  0  0  0
   -9.4411   -1.3014  -24.0813 C   0  0  0  0  0  0  0  0  0  0  0  0
  -10.2222   -0.1094  -24.3532 N   0  0  0  0  0  0  0  0  0  0  0  0
   -9.5562    1.1197  -24.7395 C   0  0  0  0  0  0  0  0  0  0  0  0
   -9.2582    1.9577  -23.4845 C   0  0  0  0  0  0  0  0  0  0  0  0
   -8.9899    3.3713  -23.8143 N   0  0  0  0  0  0  0  0  0  0  0  0
   -8.1163    4.0951  -22.8339 C   0  0  0  0  0  0  0  0  0  0  0  0
   -7.7934    5.4712  -23.3918 C   0  0  0  0  0  0  0  0  0  0  0  0
   -8.9605    6.2382  -23.6318 O   0  0  0  0  0  0  0  0  0  0  0  0
   -9.8372    5.5709  -24.5227 C   0  0  0  0  0  0  0  0  0  0  0  0
  -10.2419    4.2048  -23.9847 C   0  0  0  0  0  0  0  0  0  0  0  0
  -10.9471    3.6836  -24.6396 H   0  0  0  0  0  0  0  0  0  0  0  0
  -10.7102    4.3275  -23.0009 H   0  0  0  0  0  0  0  0  0  0  0  0
  -10.7106    6.2114  -24.6568 H   0  0  0  0  0  0  0  0  0  0  0  0
   -9.3480    5.4365  -25.5014 H   0  0  0  0  0  0  0  0  0  0  0  0
   -7.2343    5.3386  -24.3315 H   0  0  0  0  0  0  0  0  0  0  0  0
   -7.1753    6.0350  -22.6921 H   0  0  0  0  0  0  0  0  0  0  0  0
   -7.2106    3.5107  -22.6530 H   0  0  0  0  0  0  0  0  0  0  0  0
   -8.6603    4.1919  -21.8892 H   0  0  0  0  0  0  0  0  0  0  0  0
   -8.4941    3.3361  -24.7257 H   0  0  0  0  0  0  0  0  0  0  0  0
  -10.1110    1.9082  -22.8053 H   0  0  0  0  0  0  0  0  0  0  0  0
   -8.4024    1.5383  -22.9464 H   0  0  0  0  0  0  0  0  0  0  0  0
  -10.2137    1.6585  -25.4299 H   0  0  0  0  0  0  0  0  0  0  0  0
   -8.6476    0.8571  -25.2975 H   0  0  0  0  0  0  0  0  0  0  0  0
   -8.3795   -1.0510  -24.1895 H   0  0  0  0  0  0  0  0  0  0  0  0
   -9.6860   -2.0711  -24.8245 H   0  0  0  0  0  0  0  0  0  0  0  0
   -9.0606   -0.9134  -21.6089 C   0  0  0  0  0  0  0  0  0  0  0  0
   -9.5899    0.0611  -21.1117 O   0  0  0  0  0  0  0  0  0  0  0  0
   -7.7687   -1.3090  -21.3423 N   0  0  0  0  0  0  0  0  0  0  0  0
   -6.9824   -0.7773  -20.2856 C   0  0  0  0  0  0  0  0  0  0  0  0
   -7.3028   -1.0530  -18.9793 C   0  0  0  0  0  0  0  0  0  0  0  0
   -6.5759   -0.6533  -17.9036 N   0  0  0  0  0  0  0  0  0  0  0  0
   -5.4934    0.0500  -18.1389 C   0  0  0  0  0  0  0  0  0  0  0  0
   -5.0379    0.4066  -19.4392 C   0  0  0  0  0  0  0  0  0  0  0  0
   -3.8708    1.1932  -19.6332 C   0  0  0  0  0  0  0  0  0  0  0  0
   -3.4399    1.4863  -20.8982 C   0  0  0  0  0  0  0  0  0  0  0  0
   -4.1409    0.9929  -22.0195 C   0  0  0  0  0  0  0  0  0  0  0  0
   -5.2783    0.2385  -21.8550 C   0  0  0  0  0  0  0  0  0  0  0  0
   -5.7755   -0.0512  -20.5566 C   0  0  0  0  0  0  0  0  0  0  0  0
   -5.8085   -0.1401  -22.7230 H   0  0  0  0  0  0  0  0  0  0  0  0
   -3.7804    1.2148  -23.0194 H   0  0  0  0  0  0  0  0  0  0  0  0
   -2.5557    2.0992  -21.0489 H   0  0  0  0  0  0  0  0  0  0  0  0
   -3.3356    1.5572  -18.7590 H   0  0  0  0  0  0  0  0  0  0  0  0
   -4.9076    0.3704  -17.2758 H   0  0  0  0  0  0  0  0  0  0  0  0
   -8.1862   -1.6478  -18.7573 H   0  0  0  0  0  0  0  0  0  0  0  0
   -7.4103   -2.5557  -21.9754 C   0  0  0  0  0  0  0  0  0  0  0  0
   -8.7634   -3.1423  -22.4208 C   0  0  2  0  0  0  0  0  0  0  0  0
   -8.5119   -4.1506  -23.5592 C   0  0  0  0  0  0  0  0  0  0  0  0
   -7.4959   -5.1103  -23.1557 N   0  0  0  0  0  0  0  0  0  0  0  0
   -6.2759   -5.2740  -23.7422 C   0  0  0  0  0  0  0  0  0  0  0  0
   -5.8779   -4.4325  -24.7092 N   0  0  0  0  0  0  0  0  0  0  0  0
   -4.6954   -4.7046  -25.2697 C   0  0  0  0  0  0  0  0  0  0  0  0
   -3.8947   -5.7663  -24.8848 C   0  0  0  0  0  0  0  0  0  0  0  0
   -4.3880   -6.5318  -23.8320 C   0  0  0  0  0  0  0  0  0  0  0  0
   -5.5642   -6.3232  -23.2664 N   0  0  0  0  0  0  0  0  0  0  0  0
   -3.8027   -7.3588  -23.4294 H   0  0  0  0  0  0  0  0  0  0  0  0
   -2.9426   -5.9743  -25.3588 H   0  0  0  0  0  0  0  0  0  0  0  0
   -4.3883   -4.0437  -26.0793 H   0  0  0  0  0  0  0  0  0  0  0  0
   -7.7417   -5.8626  -22.5310 H   0  0  0  0  0  0  0  0  0  0  0  0
   -9.4315   -4.6817  -23.8366 H   0  0  0  0  0  0  0  0  0  0  0  0
   -8.1152   -3.6624  -24.4539 H   0  0  0  0  0  0  0  0  0  0  0  0
   -9.1701   -3.6937  -21.5617 H   0  0  0  0  0  0  0  0  0  0  0  0
   -6.7327   -2.4118  -22.8362 H   0  0  0  0  0  0  0  0  0  0  0  0
   -6.9037   -3.2044  -21.2573 H   0  0  0  0  0  0  0  0  0  0  0  0
  -11.2165   -3.7382  -21.2314 H   0  0  0  0  0  0  0  0  0  0  0  0
  -15.0355   -1.7815  -21.6951 H   0  0  0  0  0  0  0  0  0  0  0  0
  -13.9710   -0.1067  -23.1506 H   0  0  0  0  0  0  0  0  0  0  0  0
  1  2  2  0
  2  3  1  0
  3  4  2  0
  4  5  1  0
  5  6  2  0
  6  7  1  0
  6  8  1  0
  8  9  2  0
  9 10  1  0
 10 11  1  6
 11 12  1  0
 12 13  1  0
 13 14  1  0
 14 15  1  0
 15 16  1  0
 16 17  1  0
 17 18  1  0
 18 19  1  0
 19 20  1  0
 20 21  1  0
 20 22  1  0
 19 23  1  0
 19 24  1  0
 17 25  1  0
 17 26  1  0
 16 27  1  0
 16 28  1  0
 15 29  1  0
 14 30  1  0
 14 31  1  0
 13 32  1  0
 13 33  1  0
 11 34  1  0
 11 35  1  0
 10 36  1  0
 36 37  2  0
 36 38  1  0
 38 39  1  0
 39 40  2  0
 40 41  1  0
 41 42  2  0
 42 43  1  0
 43 44  2  0
 44 45  1  0
 45 46  2  0
 46 47  1  0
 47 48  2  0
 47 49  1  0
 46 50  1  0
 45 51  1  0
 44 52  1  0
 42 53  1  0
 40 54  1  0
 38 55  1  0
 55 56  1  0
 56 57  1  0
 57 58  1  0
 58 59  1  0
 59 60  2  0
 60 61  1  0
 61 62  2  0
 62 63  1  0
 63 64  2  0
 63 65  1  0
 62 66  1  0
 61 67  1  0
 58 68  1  0
 57 69  1  0
 57 70  1  0
 56 71  1  1
 55 72  1  0
 55 73  1  0
  8 74  1  0
  5 75  1  0
  4 76  1  0
 12  2  1  0
 20 15  1  0
 48 39  1  0
 64 59  1  0
  9  3  1  0
 56 10  1  0
 48 43  1  0
M  CHG  1  15   1
M  END
>  <cnnaffinities>  (1) 
[7.25038, 6.33059, 7.00488]

>  <score>  (1) 
7.25038

>  <index>  (1) 
12

>  <Smiles>  (1) 
O=C1c2c(c(c(Cl)c(c2[C@@]2(C(N1C(C([N+]1(C(C(OC(C1([H])[H])([H])[H])([H])[H])([H])[H])[H])([H])[H])([H])[H])([H])[H])C(=O)N(c1c(nc(c3c(c(c(c(c13)[H])[H])[H])[H])[H])[H])C([C@@]2(C(N(c1nc(c(c(n1)[H])[H])[H])[H])([H])[H])[H])([H])[H])[H])[H])[H]

>  <h>  (1) 
<NA>

>  <Training>  (1) 
True

>  <Success>  (1) 
True

>  <enamine_searched>  (1) 
False

>  <enamine_id>  (1) 
nan

$$$$
