
     RDKit          3D

 57 62  0  0  0  0  0  0  0  0999 V2000
   -8.1604   -3.6789  -23.9635 C   0  0  0  0  0  0  0  0  0  0  0  0
   -8.3808   -3.0051  -22.6128 C   0  0  1  0  0  0  0  0  0  0  0  0
   -7.0558   -2.5183  -21.9907 C   0  0  0  0  0  0  0  0  0  0  0  0
   -7.4480   -1.3778  -21.1931 N   0  0  0  0  0  0  0  0  0  0  0  0
   -6.6373   -0.8314  -20.1649 C   0  0  0  0  0  0  0  0  0  0  0  0
   -6.9592   -1.0445  -18.8458 C   0  0  0  0  0  0  0  0  0  0  0  0
   -6.2537   -0.5593  -17.7938 N   0  0  0  0  0  0  0  0  0  0  0  0
   -5.2015    0.1799  -18.0631 C   0  0  0  0  0  0  0  0  0  0  0  0
   -4.7485    0.4731  -19.3828 C   0  0  0  0  0  0  0  0  0  0  0  0
   -3.6414    1.3334  -19.6233 C   0  0  0  0  0  0  0  0  0  0  0  0
   -3.2385    1.6025  -20.9041 C   0  0  0  0  0  0  0  0  0  0  0  0
   -3.8905    0.9915  -21.9983 C   0  0  0  0  0  0  0  0  0  0  0  0
   -4.9603    0.1499  -21.7882 C   0  0  0  0  0  0  0  0  0  0  0  0
   -5.4492   -0.0932  -20.4734 C   0  0  0  0  0  0  0  0  0  0  0  0
   -5.4328   -0.3335  -22.6381 H   0  0  0  0  0  0  0  0  0  0  0  0
   -3.5635    1.2142  -23.0123 H   0  0  0  0  0  0  0  0  0  0  0  0
   -2.4240    2.2976  -21.0887 H   0  0  0  0  0  0  0  0  0  0  0  0
   -3.1427    1.7854  -18.7703 H   0  0  0  0  0  0  0  0  0  0  0  0
   -4.6430    0.5894  -17.2189 H   0  0  0  0  0  0  0  0  0  0  0  0
   -7.8316   -1.6430  -18.5925 H   0  0  0  0  0  0  0  0  0  0  0  0
   -8.7060   -0.8956  -21.4940 C   0  0  0  0  0  0  0  0  0  0  0  0
   -9.2285    0.0517  -20.9481 O   0  0  0  0  0  0  0  0  0  0  0  0
   -9.3162   -1.7550  -22.6388 C   0  0  1  0  0  0  0  0  0  0  0  0
   -9.1620   -1.0037  -23.9963 C   0  0  0  0  0  0  0  0  0  0  0  0
  -10.0219    0.1544  -24.1202 N   0  0  0  0  0  0  0  0  0  0  0  0
   -9.4747    1.3873  -24.6834 C   0  0  0  0  0  0  0  0  0  0  0  0
   -8.6340    2.1154  -23.6835 C   0  0  0  0  0  0  0  0  0  0  0  0
   -9.0906    2.9241  -22.7008 C   0  0  0  0  0  0  0  0  0  0  0  0
   -7.9981    3.3538  -21.9769 N   0  0  0  0  0  0  0  0  0  0  0  0
   -6.8920    2.8179  -22.5064 C   0  0  0  0  0  0  0  0  0  0  0  0
   -7.2531    2.0382  -23.5468 N   0  0  0  0  0  0  0  0  0  0  0  0
   -6.6431    1.4387  -24.1015 H   0  0  0  0  0  0  0  0  0  0  0  0
   -5.8834    2.9857  -22.1749 H   0  0  0  0  0  0  0  0  0  0  0  0
   -8.0277    3.9525  -21.1574 H   0  0  0  0  0  0  0  0  0  0  0  0
  -10.1007    3.2405  -22.4516 H   0  0  0  0  0  0  0  0  0  0  0  0
   -8.9141    1.1856  -25.6080 H   0  0  0  0  0  0  0  0  0  0  0  0
  -10.3537    1.9853  -24.9438 H   0  0  0  0  0  0  0  0  0  0  0  0
  -11.3230    0.1430  -23.6928 C   0  0  0  0  0  0  0  0  0  0  0  0
  -12.1050    1.0462  -23.9467 O   0  0  0  0  0  0  0  0  0  0  0  0
  -11.7432   -1.0539  -22.8901 C   0  0  0  0  0  0  0  0  0  0  0  0
  -13.1063   -1.1652  -22.6122 C   0  0  0  0  0  0  0  0  0  0  0  0
  -13.5695   -2.1763  -21.8018 C   0  0  0  0  0  0  0  0  0  0  0  0
  -12.6489   -3.0848  -21.2988 C   0  0  0  0  0  0  0  0  0  0  0  0
  -13.1059   -3.9819  -20.4091 F   0  0  0  0  0  0  0  0  0  0  0  0
  -11.3038   -3.0514  -21.6331 C   0  0  0  0  0  0  0  0  0  0  0  0
  -10.8117   -1.9944  -22.4145 C   0  0  0  0  0  0  0  0  0  0  0  0
  -10.6468   -3.8194  -21.2372 H   0  0  0  0  0  0  0  0  0  0  0  0
  -14.6148   -2.2571  -21.5326 H   0  0  0  0  0  0  0  0  0  0  0  0
  -13.7759   -0.4190  -23.0285 H   0  0  0  0  0  0  0  0  0  0  0  0
   -8.1230   -0.6788  -24.1123 H   0  0  0  0  0  0  0  0  0  0  0  0
   -9.3970   -1.6912  -24.8174 H   0  0  0  0  0  0  0  0  0  0  0  0
   -6.3409   -2.2319  -22.7756 H   0  0  0  0  0  0  0  0  0  0  0  0
   -6.5685   -3.2762  -21.3669 H   0  0  0  0  0  0  0  0  0  0  0  0
   -8.8061   -3.7321  -21.9165 H   0  0  0  0  0  0  0  0  0  0  0  0
   -7.5455   -4.5788  -23.8732 H   0  0  0  0  0  0  0  0  0  0  0  0
   -7.6361   -2.9988  -24.6452 H   0  0  0  0  0  0  0  0  0  0  0  0
   -9.1113   -3.9558  -24.4302 H   0  0  0  0  0  0  0  0  0  0  0  0
  1  2  1  0
  2  3  1  0
  3  4  1  0
  4  5  1  0
  5  6  2  0
  6  7  1  0
  7  8  2  0
  8  9  1  0
  9 10  2  0
 10 11  1  0
 11 12  2  0
 12 13  1  0
 13 14  2  0
 13 15  1  0
 12 16  1  0
 11 17  1  0
 10 18  1  0
  8 19  1  0
  6 20  1  0
  4 21  1  0
 21 22  2  0
 21 23  1  0
 23 24  1  6
 24 25  1  0
 25 26  1  0
 26 27  1  0
 27 28  2  0
 28 29  1  0
 29 30  2  0
 30 31  1  0
 31 32  1  0
 30 33  1  0
 29 34  1  0
 28 35  1  0
 26 36  1  0
 26 37  1  0
 25 38  1  0
 38 39  2  0
 38 40  1  0
 40 41  2  0
 41 42  1  0
 42 43  2  0
 43 44  1  0
 43 45  1  0
 45 46  2  0
 45 47  1  0
 42 48  1  0
 41 49  1  0
 24 50  1  0
 24 51  1  0
  3 52  1  0
  3 53  1  0
  2 54  1  1
  1 55  1  0
  1 56  1  0
  1 57  1  0
 23  2  1  0
 31 27  1  0
 46 40  1  0
 14  5  1  0
 46 23  1  0
 14  9  1  0
M  CHG  1  29   1
M  END
>  <cnnaffinities>  (1) 
[6.65746]

>  <score>  (1) 
6.65746

>  <index>  (1) 
10

>  <Smiles>  (1) 
C([C@]1(C(N(c2c(nc(c3c(c(c(c(c23)[H])[H])[H])[H])[H])[H])C(=O)[C@]21C(N(C(c1c([n+](c(n1[H])[H])[H])[H])([H])[H])C(=O)c1c(c(c(F)c(c21)[H])[H])[H])([H])[H])([H])[H])[H])([H])([H])[H]

>  <h>  (1) 
<NA>

>  <Training>  (1) 
True

>  <Success>  (1) 
True

>  <enamine_searched>  (1) 
False

>  <enamine_id>  (1) 
nan

$$$$
