
     RDKit          3D

 67 72  0  0  0  0  0  0  0  0999 V2000
   -9.2252    2.3590  -28.3313 C   0  0  0  0  0  0  0  0  0  0  0  0
   -9.3805    2.2042  -26.8977 N   0  0  0  0  0  0  0  0  0  0  0  0
   -8.3644    1.6830  -26.1637 C   0  0  0  0  0  0  0  0  0  0  0  0
   -7.3166    1.2697  -26.6435 O   0  0  0  0  0  0  0  0  0  0  0  0
   -8.6058    1.6705  -24.6500 C   0  0  0  0  0  0  0  0  0  0  0  0
   -9.2916    0.4752  -24.1999 N   0  0  0  0  0  0  0  0  0  0  0  0
   -8.5715   -0.7759  -24.1434 C   0  0  0  0  0  0  0  0  0  0  0  0
   -8.9777   -1.5969  -22.8968 C   0  0  2  0  0  0  0  0  0  0  0  0
   -8.5401   -0.8617  -21.6088 C   0  0  0  0  0  0  0  0  0  0  0  0
   -9.1078    0.0575  -21.0555 O   0  0  0  0  0  0  0  0  0  0  0  0
   -7.3716   -1.4303  -21.1616 N   0  0  0  0  0  0  0  0  0  0  0  0
   -6.6107   -0.8317  -20.1258 C   0  0  0  0  0  0  0  0  0  0  0  0
   -6.9604   -1.0287  -18.8153 C   0  0  0  0  0  0  0  0  0  0  0  0
   -6.2701   -0.5384  -17.7516 N   0  0  0  0  0  0  0  0  0  0  0  0
   -5.2089    0.1910  -18.0110 C   0  0  0  0  0  0  0  0  0  0  0  0
   -4.7480    0.5016  -19.3257 C   0  0  0  0  0  0  0  0  0  0  0  0
   -3.6196    1.3324  -19.5627 C   0  0  0  0  0  0  0  0  0  0  0  0
   -3.2327    1.6282  -20.8415 C   0  0  0  0  0  0  0  0  0  0  0  0
   -3.9436    1.1039  -21.9435 C   0  0  0  0  0  0  0  0  0  0  0  0
   -5.0321    0.2932  -21.7428 C   0  0  0  0  0  0  0  0  0  0  0  0
   -5.4634   -0.0256  -20.4240 C   0  0  0  0  0  0  0  0  0  0  0  0
   -5.5790   -0.0976  -22.5963 H   0  0  0  0  0  0  0  0  0  0  0  0
   -3.6332    1.3515  -22.9537 H   0  0  0  0  0  0  0  0  0  0  0  0
   -2.3810    2.2781  -21.0199 H   0  0  0  0  0  0  0  0  0  0  0  0
   -3.0875    1.7402  -18.7076 H   0  0  0  0  0  0  0  0  0  0  0  0
   -4.6556    0.5841  -17.1572 H   0  0  0  0  0  0  0  0  0  0  0  0
   -7.8418   -1.6218  -18.5806 H   0  0  0  0  0  0  0  0  0  0  0  0
   -6.9298   -2.5719  -21.9329 C   0  0  0  0  0  0  0  0  0  0  0  0
   -8.1332   -2.9096  -22.8331 C   0  0  2  0  0  0  0  0  0  0  0  0
   -7.6528   -3.4763  -24.1867 C   0  0  0  0  0  0  0  0  0  0  0  0
   -6.7528   -4.5868  -24.0450 N   0  0  0  0  0  0  0  0  0  0  0  0
   -7.1971   -5.8667  -23.8509 C   0  0  0  0  0  0  0  0  0  0  0  0
   -6.4943   -6.9882  -23.5408 C   0  0  0  0  0  0  0  0  0  0  0  0
   -7.2391   -8.1201  -23.2965 N   0  0  0  0  0  0  0  0  0  0  0  0
   -8.5085   -7.8824  -23.4287 C   0  0  0  0  0  0  0  0  0  0  0  0
   -9.6075   -8.8661  -23.2168 C   0  0  0  0  0  0  0  0  0  0  0  0
  -10.2180   -8.9018  -24.1245 H   0  0  0  0  0  0  0  0  0  0  0  0
  -10.2676   -8.5978  -22.3853 H   0  0  0  0  0  0  0  0  0  0  0  0
   -9.1802   -9.8489  -23.0063 H   0  0  0  0  0  0  0  0  0  0  0  0
   -8.8890   -6.2529  -23.9221 S   0  0  0  0  0  0  0  0  0  0  0  0
   -5.4171   -7.0075  -23.4599 H   0  0  0  0  0  0  0  0  0  0  0  0
   -5.7888   -4.3972  -23.8245 H   0  0  0  0  0  0  0  0  0  0  0  0
   -7.1302   -2.7083  -24.7647 H   0  0  0  0  0  0  0  0  0  0  0  0
   -8.5112   -3.8083  -24.7731 H   0  0  0  0  0  0  0  0  0  0  0  0
   -8.7223   -3.6895  -22.3419 H   0  0  0  0  0  0  0  0  0  0  0  0
   -6.6525   -3.4005  -21.2717 H   0  0  0  0  0  0  0  0  0  0  0  0
   -6.0422   -2.3198  -22.5313 H   0  0  0  0  0  0  0  0  0  0  0  0
  -10.4976   -1.6818  -22.8790 C   0  0  0  0  0  0  0  0  0  0  0  0
  -11.1480   -2.5806  -22.0244 C   0  0  0  0  0  0  0  0  0  0  0  0
  -12.5336   -2.5876  -21.9576 C   0  0  0  0  0  0  0  0  0  0  0  0
  -13.3630   -3.6262  -20.8374 Cl  0  0  0  0  0  0  0  0  0  0  0  0
  -13.3063   -1.7166  -22.7240 C   0  0  0  0  0  0  0  0  0  0  0  0
  -12.6747   -0.7815  -23.5178 C   0  0  0  0  0  0  0  0  0  0  0  0
  -11.2820   -0.7285  -23.5557 C   0  0  0  0  0  0  0  0  0  0  0  0
  -10.6516    0.4539  -24.2335 C   0  0  0  0  0  0  0  0  0  0  0  0
  -11.2987    1.3610  -24.7438 O   0  0  0  0  0  0  0  0  0  0  0  0
  -13.2356   -0.0426  -24.0829 H   0  0  0  0  0  0  0  0  0  0  0  0
  -14.3865   -1.7515  -22.6457 H   0  0  0  0  0  0  0  0  0  0  0  0
  -10.5779   -3.2388  -21.3783 H   0  0  0  0  0  0  0  0  0  0  0  0
   -7.4988   -0.5544  -24.1393 H   0  0  0  0  0  0  0  0  0  0  0  0
   -8.8031   -1.3629  -25.0436 H   0  0  0  0  0  0  0  0  0  0  0  0
   -7.6232    1.7078  -24.1688 H   0  0  0  0  0  0  0  0  0  0  0  0
   -9.2051    2.5273  -24.3240 H   0  0  0  0  0  0  0  0  0  0  0  0
  -10.2816    2.3491  -26.4566 H   0  0  0  0  0  0  0  0  0  0  0  0
  -10.0879    2.9021  -28.7257 H   0  0  0  0  0  0  0  0  0  0  0  0
   -8.3146    2.9271  -28.5531 H   0  0  0  0  0  0  0  0  0  0  0  0
   -9.1404    1.3917  -28.8417 H   0  0  0  0  0  0  0  0  0  0  0  0
  1  2  1  0
  2  3  1  0
  3  4  2  0
  3  5  1  0
  5  6  1  0
  6  7  1  0
  8  7  1  6
  8  9  1  0
  9 10  2  0
  9 11  1  0
 11 12  1  0
 12 13  2  0
 13 14  1  0
 14 15  2  0
 15 16  1  0
 16 17  2  0
 17 18  1  0
 18 19  2  0
 19 20  1  0
 20 21  2  0
 20 22  1  0
 19 23  1  0
 18 24  1  0
 17 25  1  0
 15 26  1  0
 13 27  1  0
 11 28  1  0
 28 29  1  0
 29 30  1  0
 30 31  1  0
 31 32  1  0
 32 33  2  0
 33 34  1  0
 34 35  2  0
 35 36  1  0
 36 37  1  0
 36 38  1  0
 36 39  1  0
 35 40  1  0
 33 41  1  0
 31 42  1  0
 30 43  1  0
 30 44  1  0
 29 45  1  1
 28 46  1  0
 28 47  1  0
  8 48  1  0
 48 49  2  0
 49 50  1  0
 50 51  1  0
 50 52  2  0
 52 53  1  0
 53 54  2  0
 54 55  1  0
 55 56  2  0
 53 57  1  0
 52 58  1  0
 49 59  1  0
  7 60  1  0
  7 61  1  0
  5 62  1  0
  5 63  1  0
  2 64  1  0
  1 65  1  0
  1 66  1  0
  1 67  1  0
 55  6  1  0
 29  8  1  0
 40 32  1  0
 54 48  1  0
 21 12  1  0
 21 16  1  0
M  END
>  <cnnaffinities>  (1) 
[6.90068, 7.17215]

>  <score>  (1) 
6.90068

>  <index>  (1) 
49

>  <Smiles>  (1) 
C(N(C(=O)C(N1C([C@@]2(C(=O)N(c3c(nc(c4c(c(c(c(c34)[H])[H])[H])[H])[H])[H])C([C@@]2(C(N(c2c(nc(C([H])([H])[H])s2)[H])[H])([H])[H])[H])([H])[H])c2c(c(Cl)c(c(c2C1=O)[H])[H])[H])([H])[H])([H])[H])[H])([H])([H])[H]

>  <h>  (1) 
<NA>

>  <Training>  (1) 
True

>  <Success>  (1) 
True

>  <enamine_searched>  (1) 
False

>  <enamine_id>  (1) 
nan

$$$$
