
     RDKit          3D

 46 50  0  0  0  0  0  0  0  0999 V2000
   -3.6260   -1.0749  -25.3568 N   0  0  0  0  0  0  0  0  0  0  0  0
   -4.5218   -2.0122  -26.3777 S   0  0  0  0  0  0  0  0  0  0  0  0
   -4.3055   -3.3706  -25.9215 O   0  0  0  0  0  0  0  0  0  0  0  0
   -4.1897   -1.5676  -27.7174 O   0  0  0  0  0  0  0  0  0  0  0  0
   -6.2247   -1.5897  -26.0858 C   0  0  0  0  0  0  0  0  0  0  0  0
   -6.9802   -0.9924  -27.0942 C   0  0  0  0  0  0  0  0  0  0  0  0
   -8.2844   -0.6211  -26.8254 C   0  0  0  0  0  0  0  0  0  0  0  0
   -8.8195   -0.8196  -25.5476 C   0  0  0  0  0  0  0  0  0  0  0  0
   -8.0821   -1.4607  -24.5549 C   0  0  0  0  0  0  0  0  0  0  0  0
   -6.7674   -1.8238  -24.8303 C   0  0  0  0  0  0  0  0  0  0  0  0
   -6.1643   -2.2990  -24.0600 H   0  0  0  0  0  0  0  0  0  0  0  0
   -8.6804   -1.6890  -23.1807 C   0  0  1  0  0  0  0  0  0  0  0  0
  -10.2136   -1.5969  -23.2303 C   0  0  0  0  0  0  0  0  0  0  0  0
  -10.6473   -0.3861  -24.0396 C   0  0  0  0  0  0  0  0  0  0  0  0
  -10.0734   -0.3637  -25.3357 O   0  0  0  0  0  0  0  0  0  0  0  0
  -10.3894    0.5453  -23.5225 H   0  0  0  0  0  0  0  0  0  0  0  0
  -11.7252   -0.4201  -24.2239 H   0  0  0  0  0  0  0  0  0  0  0  0
  -10.5936   -1.5374  -22.2063 H   0  0  0  0  0  0  0  0  0  0  0  0
  -10.6103   -2.5184  -23.6807 H   0  0  0  0  0  0  0  0  0  0  0  0
   -8.2605   -2.9271  -22.5735 N   0  0  0  0  0  0  0  0  0  0  0  0
   -7.4708   -2.7904  -21.4749 C   0  0  0  0  0  0  0  0  0  0  0  0
   -6.8996   -3.6586  -20.8616 O   0  0  0  0  0  0  0  0  0  0  0  0
   -7.4055   -1.4025  -21.2128 N   0  0  0  0  0  0  0  0  0  0  0  0
   -6.5917   -0.8330  -20.1938 C   0  0  0  0  0  0  0  0  0  0  0  0
   -6.9038   -1.0704  -18.8799 C   0  0  0  0  0  0  0  0  0  0  0  0
   -6.2227   -0.5506  -17.8296 N   0  0  0  0  0  0  0  0  0  0  0  0
   -5.1857    0.2058  -18.0976 C   0  0  0  0  0  0  0  0  0  0  0  0
   -4.7353    0.5148  -19.4103 C   0  0  0  0  0  0  0  0  0  0  0  0
   -3.6009    1.3410  -19.6382 C   0  0  0  0  0  0  0  0  0  0  0  0
   -3.1840    1.6043  -20.9128 C   0  0  0  0  0  0  0  0  0  0  0  0
   -3.8785    1.0466  -22.0113 C   0  0  0  0  0  0  0  0  0  0  0  0
   -4.9771    0.2488  -21.8195 C   0  0  0  0  0  0  0  0  0  0  0  0
   -5.4477   -0.0259  -20.5026 C   0  0  0  0  0  0  0  0  0  0  0  0
   -5.5158   -0.1678  -22.6700 H   0  0  0  0  0  0  0  0  0  0  0  0
   -3.5428    1.2658  -23.0207 H   0  0  0  0  0  0  0  0  0  0  0  0
   -2.3237    2.2453  -21.0858 H   0  0  0  0  0  0  0  0  0  0  0  0
   -3.0821    1.7564  -18.7794 H   0  0  0  0  0  0  0  0  0  0  0  0
   -4.6403    0.6083  -17.2458 H   0  0  0  0  0  0  0  0  0  0  0  0
   -7.7539   -1.6970  -18.6215 H   0  0  0  0  0  0  0  0  0  0  0  0
   -8.0981   -0.6743  -22.1807 C   0  0  0  0  0  0  0  0  0  0  0  0
   -8.2088    0.5269  -22.2172 O   0  0  0  0  0  0  0  0  0  0  0  0
   -8.4446   -3.8304  -22.9788 H   0  0  0  0  0  0  0  0  0  0  0  0
   -8.9070   -0.1670  -27.5879 H   0  0  0  0  0  0  0  0  0  0  0  0
   -6.5326   -0.8201  -28.0688 H   0  0  0  0  0  0  0  0  0  0  0  0
   -3.7416   -0.0862  -25.5463 H   0  0  0  0  0  0  0  0  0  0  0  0
   -3.7125   -1.3733  -24.3921 H   0  0  0  0  0  0  0  0  0  0  0  0
  1  2  1  0
  2  3  2  0
  2  4  2  0
  2  5  1  0
  5  6  2  0
  6  7  1  0
  7  8  2  0
  8  9  1  0
  9 10  2  0
 10 11  1  0
  9 12  1  0
 12 13  1  0
 13 14  1  0
 14 15  1  0
 14 16  1  0
 14 17  1  0
 13 18  1  0
 13 19  1  0
 12 20  1  1
 20 21  1  0
 21 22  2  0
 21 23  1  0
 23 24  1  0
 24 25  2  0
 25 26  1  0
 26 27  2  0
 27 28  1  0
 28 29  2  0
 29 30  1  0
 30 31  2  0
 31 32  1  0
 32 33  2  0
 32 34  1  0
 31 35  1  0
 30 36  1  0
 29 37  1  0
 27 38  1  0
 25 39  1  0
 23 40  1  0
 40 41  2  0
 20 42  1  0
  7 43  1  0
  6 44  1  0
  1 45  1  0
  1 46  1  0
 10  5  1  0
 40 12  1  0
 15  8  1  0
 33 24  1  0
 33 28  1  0
M  END
>  <cnnaffinities>  (1) 
[5.35591, 5.34483]

>  <score>  (1) 
5.35591

>  <index>  (1) 
83

>  <Smiles>  (1) 
N(S(=O)(=O)c1c(c(c2c(c1[H])[C@@]1(C(C(O2)([H])[H])([H])[H])N(C(=O)N(c2c(nc(c3c(c(c(c(c23)[H])[H])[H])[H])[H])[H])C1=O)[H])[H])[H])([H])[H]

>  <h>  (1) 
<NA>

>  <Training>  (1) 
True

>  <Success>  (1) 
True

>  <enamine_searched>  (1) 
False

>  <enamine_id>  (1) 
nan

$$$$
