
     RDKit          3D

 43 47  0  0  0  0  0  0  0  0999 V2000
   -9.4291   -0.4490  -20.9916 O   0  0  0  0  0  0  0  0  0  0  0  0
   -8.7468   -1.3628  -21.3810 C   0  0  0  0  0  0  0  0  0  0  0  0
   -9.1376   -2.4504  -22.1143 N   0  0  0  0  0  0  0  0  0  0  0  0
   -8.0405   -3.1517  -22.7326 C   0  0  1  0  0  0  0  0  0  0  0  0
   -8.1058   -4.6935  -22.6965 C   0  0  0  0  0  0  0  0  0  0  0  0
   -8.2273   -4.7392  -24.2534 C   0  0  2  0  0  0  0  0  0  0  0  0
   -7.1816   -5.5468  -24.9583 C   0  0  0  0  0  0  0  0  0  0  0  0
   -5.8248   -5.3054  -24.7124 C   0  0  0  0  0  0  0  0  0  0  0  0
   -4.8367   -6.0462  -25.3494 C   0  0  0  0  0  0  0  0  0  0  0  0
   -5.1879   -7.0520  -26.2483 C   0  0  0  0  0  0  0  0  0  0  0  0
   -6.5280   -7.3116  -26.5038 C   0  0  0  0  0  0  0  0  0  0  0  0
   -7.5050   -6.5629  -25.8585 C   0  0  0  0  0  0  0  0  0  0  0  0
   -9.1750   -6.9425  -26.2140 Cl  0  0  0  0  0  0  0  0  0  0  0  0
   -6.8349   -8.0848  -27.2012 H   0  0  0  0  0  0  0  0  0  0  0  0
   -4.4199   -7.6331  -26.7512 H   0  0  0  0  0  0  0  0  0  0  0  0
   -3.7926   -5.8328  -25.1402 H   0  0  0  0  0  0  0  0  0  0  0  0
   -5.5476   -4.5210  -24.0048 H   0  0  0  0  0  0  0  0  0  0  0  0
   -8.0355   -3.1881  -24.2895 C   0  0  0  0  0  0  0  0  0  0  0  0
   -8.8558   -2.6241  -24.7479 H   0  0  0  0  0  0  0  0  0  0  0  0
   -7.0967   -2.8525  -24.7482 H   0  0  0  0  0  0  0  0  0  0  0  0
   -9.2292   -5.0371  -24.5762 H   0  0  0  0  0  0  0  0  0  0  0  0
   -8.9691   -5.0630  -22.1398 H   0  0  0  0  0  0  0  0  0  0  0  0
   -7.1965   -5.1548  -22.2933 H   0  0  0  0  0  0  0  0  0  0  0  0
   -6.8429   -2.5182  -22.0450 C   0  0  0  0  0  0  0  0  0  0  0  0
   -5.6815   -2.8116  -22.2102 O   0  0  0  0  0  0  0  0  0  0  0  0
   -7.3437   -1.5144  -21.2039 N   0  0  0  0  0  0  0  0  0  0  0  0
   -6.5862   -0.8572  -20.1854 C   0  0  0  0  0  0  0  0  0  0  0  0
   -6.9102   -1.0603  -18.8662 C   0  0  0  0  0  0  0  0  0  0  0  0
   -6.2198   -0.5451  -17.8190 N   0  0  0  0  0  0  0  0  0  0  0  0
   -5.1806    0.2056  -18.0927 C   0  0  0  0  0  0  0  0  0  0  0  0
   -4.7475    0.5230  -19.4082 C   0  0  0  0  0  0  0  0  0  0  0  0
   -3.6175    1.3557  -19.6357 C   0  0  0  0  0  0  0  0  0  0  0  0
   -3.2274    1.6578  -20.9099 C   0  0  0  0  0  0  0  0  0  0  0  0
   -3.9561    1.1428  -22.0059 C   0  0  0  0  0  0  0  0  0  0  0  0
   -5.0498    0.3352  -21.8118 C   0  0  0  0  0  0  0  0  0  0  0  0
   -5.4705   -0.0119  -20.4974 C   0  0  0  0  0  0  0  0  0  0  0  0
   -5.5961   -0.0540  -22.6649 H   0  0  0  0  0  0  0  0  0  0  0  0
   -3.6452    1.3928  -23.0148 H   0  0  0  0  0  0  0  0  0  0  0  0
   -2.3690    2.3020  -21.0888 H   0  0  0  0  0  0  0  0  0  0  0  0
   -3.0820    1.7532  -18.7783 H   0  0  0  0  0  0  0  0  0  0  0  0
   -4.6281    0.6079  -17.2446 H   0  0  0  0  0  0  0  0  0  0  0  0
   -7.7570   -1.6874  -18.5996 H   0  0  0  0  0  0  0  0  0  0  0  0
  -10.1014   -2.6131  -22.3603 H   0  0  0  0  0  0  0  0  0  0  0  0
  1  2  2  0
  2  3  1  0
  4  3  1  6
  4  5  1  0
  5  6  1  0
  6  7  1  0
  7  8  2  0
  8  9  1  0
  9 10  2  0
 10 11  1  0
 11 12  2  0
 12 13  1  0
 11 14  1  0
 10 15  1  0
  9 16  1  0
  8 17  1  0
  6 18  1  0
 18 19  1  0
 18 20  1  0
  6 21  1  1
  5 22  1  0
  5 23  1  0
  4 24  1  0
 24 25  2  0
 24 26  1  0
 26 27  1  0
 27 28  2  0
 28 29  1  0
 29 30  2  0
 30 31  1  0
 31 32  2  0
 32 33  1  0
 33 34  2  0
 34 35  1  0
 35 36  2  0
 35 37  1  0
 34 38  1  0
 33 39  1  0
 32 40  1  0
 30 41  1  0
 28 42  1  0
  3 43  1  0
 26  2  1  0
 36 27  1  0
 18  4  1  0
 36 31  1  0
 12  7  1  0
M  END
>  <cnnaffinities>  (1) 
[5.68884, 5.90886, 5.74847]

>  <score>  (1) 
5.68884

>  <index>  (1) 
74

>  <Smiles>  (1) 
O=C1N([C@]2(C([C@](c3c(c(c(c(c3Cl)[H])[H])[H])[H])(C2([H])[H])[H])([H])[H])C(=O)N1c1c(nc(c2c(c(c(c(c12)[H])[H])[H])[H])[H])[H])[H]

>  <h>  (1) 
<NA>

>  <Training>  (1) 
True

>  <Success>  (1) 
True

>  <enamine_searched>  (1) 
False

>  <enamine_id>  (1) 
nan

$$$$
