
     RDKit          3D

 43 45  0  0  0  0  0  0  0  0999 V2000
   -6.6428    0.8187  -28.1893 C   0  0  0  0  0  0  0  0  0  0  0  0
   -6.4667    1.4952  -26.8306 C   0  0  0  0  0  0  0  0  0  0  0  0
   -7.4791    1.0496  -25.7707 C   0  0  0  0  0  0  0  0  0  0  0  0
   -7.4107    1.9388  -24.5318 C   0  0  0  0  0  0  0  0  0  0  0  0
   -8.3969    1.5004  -23.4522 C   0  0  0  0  0  0  0  0  0  0  0  0
   -8.1797    0.0961  -23.1259 N   0  0  0  0  0  0  0  0  0  0  0  0
   -8.3785   -0.3126  -21.8034 C   0  0  0  0  0  0  0  0  0  0  0  0
   -9.1795    0.2211  -21.0677 O   0  0  0  0  0  0  0  0  0  0  0  0
   -7.4430   -1.4113  -21.2716 C   0  0  0  0  0  0  0  0  0  0  0  0
   -6.5705   -0.8344  -20.1738 C   0  0  0  0  0  0  0  0  0  0  0  0
   -6.8771   -1.0415  -18.8546 C   0  0  0  0  0  0  0  0  0  0  0  0
   -6.1960   -0.5354  -17.7899 N   0  0  0  0  0  0  0  0  0  0  0  0
   -5.1579    0.2201  -18.0621 C   0  0  0  0  0  0  0  0  0  0  0  0
   -4.7239    0.5340  -19.3781 C   0  0  0  0  0  0  0  0  0  0  0  0
   -3.6027    1.3686  -19.6215 C   0  0  0  0  0  0  0  0  0  0  0  0
   -3.2132    1.6629  -20.9002 C   0  0  0  0  0  0  0  0  0  0  0  0
   -3.9321    1.1292  -21.9941 C   0  0  0  0  0  0  0  0  0  0  0  0
   -5.0193    0.3167  -21.7848 C   0  0  0  0  0  0  0  0  0  0  0  0
   -5.4497   -0.0021  -20.4702 C   0  0  0  0  0  0  0  0  0  0  0  0
   -5.5523   -0.0875  -22.6385 H   0  0  0  0  0  0  0  0  0  0  0  0
   -3.6166    1.3670  -23.0064 H   0  0  0  0  0  0  0  0  0  0  0  0
   -2.3592    2.3106  -21.0842 H   0  0  0  0  0  0  0  0  0  0  0  0
   -3.0633    1.7801  -18.7713 H   0  0  0  0  0  0  0  0  0  0  0  0
   -4.6029    0.6266  -17.2145 H   0  0  0  0  0  0  0  0  0  0  0  0
   -7.7295   -1.6619  -18.5832 H   0  0  0  0  0  0  0  0  0  0  0  0
   -6.8342   -1.8461  -22.0744 H   0  0  0  0  0  0  0  0  0  0  0  0
   -8.0683   -2.2050  -20.8453 H   0  0  0  0  0  0  0  0  0  0  0  0
   -8.2712   -0.8125  -24.2631 C   0  0  0  0  0  0  0  0  0  0  0  0
   -7.3000   -0.4105  -25.3639 C   0  0  0  0  0  0  0  0  0  0  0  0
   -7.4290   -1.0726  -26.2261 H   0  0  0  0  0  0  0  0  0  0  0  0
   -6.2764   -0.5630  -25.0036 H   0  0  0  0  0  0  0  0  0  0  0  0
   -8.0710   -1.8247  -23.9153 H   0  0  0  0  0  0  0  0  0  0  0  0
   -9.2931   -0.8260  -24.6815 H   0  0  0  0  0  0  0  0  0  0  0  0
   -9.4287    1.6967  -23.7839 H   0  0  0  0  0  0  0  0  0  0  0  0
   -8.2494    2.0775  -22.5388 H   0  0  0  0  0  0  0  0  0  0  0  0
   -6.3921    1.9138  -24.1212 H   0  0  0  0  0  0  0  0  0  0  0  0
   -7.6003    2.9819  -24.8083 H   0  0  0  0  0  0  0  0  0  0  0  0
   -8.4848    1.1612  -26.2037 H   0  0  0  0  0  0  0  0  0  0  0  0
   -6.5418    2.5823  -26.9584 H   0  0  0  0  0  0  0  0  0  0  0  0
   -5.4526    1.3102  -26.4546 H   0  0  0  0  0  0  0  0  0  0  0  0
   -7.6727    0.9251  -28.5487 H   0  0  0  0  0  0  0  0  0  0  0  0
   -6.4227   -0.2534  -28.1458 H   0  0  0  0  0  0  0  0  0  0  0  0
   -5.9833    1.2596  -28.9450 H   0  0  0  0  0  0  0  0  0  0  0  0
  1  2  1  0
  2  3  1  0
  3  4  1  0
  4  5  1  0
  5  6  1  0
  6  7  1  0
  7  8  2  0
  7  9  1  0
  9 10  1  0
 10 11  2  0
 11 12  1  0
 12 13  2  0
 13 14  1  0
 14 15  2  0
 15 16  1  0
 16 17  2  0
 17 18  1  0
 18 19  2  0
 18 20  1  0
 17 21  1  0
 16 22  1  0
 15 23  1  0
 13 24  1  0
 11 25  1  0
  9 26  1  0
  9 27  1  0
  6 28  1  0
 28 29  1  0
 29 30  1  0
 29 31  1  0
 28 32  1  0
 28 33  1  0
  5 34  1  0
  5 35  1  0
  4 36  1  0
  4 37  1  0
  3 38  1  0
  2 39  1  0
  2 40  1  0
  1 41  1  0
  1 42  1  0
  1 43  1  0
 29  3  1  0
 19 10  1  0
 19 14  1  0
M  END
>  <cnnaffinities>  (1) 
[4.94394, 4.93016, 4.76273, 4.76303, 5.10165, 5.10175, 4.7091, 4.74538, 5.02215, 5.02211, 5.13282, 5.13511, 5.13306, 4.91719, 4.9172, 5.12784, 4.95749, 5.13662, 5.1366, 4.69826, 4.69828, 4.92884, 4.75065, 4.95425, 4.96067, 4.82533, 4.82545]

>  <score>  (1) 
4.94394

>  <index>  (1) 
6

>  <Smiles>  (1) 
C(C(C1(C(C(N(C(=O)C(c2c(nc(c3c(c(c(c(c23)[H])[H])[H])[H])[H])[H])([H])[H])C(C1([H])[H])([H])[H])([H])[H])([H])[H])[H])([H])[H])([H])([H])[H]

>  <h>  (1) 
<NA>

>  <Training>  (1) 
True

>  <Success>  (1) 
True

>  <enamine_searched>  (1) 
False

>  <enamine_id>  (1) 
nan

$$$$
