
     RDKit          3D

 61 66  0  0  0  0  0  0  0  0999 V2000
   -7.3758    3.4047  -21.8239 C   0  0  0  0  0  0  0  0  0  0  0  0
   -8.2378    2.9403  -22.8941 N   0  0  0  0  0  0  0  0  0  0  0  0
   -7.6633    2.2440  -23.9008 C   0  0  0  0  0  0  0  0  0  0  0  0
   -6.4464    2.1299  -24.0036 O   0  0  0  0  0  0  0  0  0  0  0  0
   -8.6095    1.6186  -24.9294 C   0  0  0  0  0  0  0  0  0  0  0  0
   -9.3359    0.4640  -24.4318 N   0  0  0  0  0  0  0  0  0  0  0  0
   -8.6294   -0.7931  -24.2598 C   0  0  0  0  0  0  0  0  0  0  0  0
   -9.0338   -1.5014  -22.9368 C   0  0  2  0  0  0  0  0  0  0  0  0
   -8.4868   -0.7087  -21.7190 C   0  0  0  0  0  0  0  0  0  0  0  0
   -8.9174    0.3303  -21.2641 O   0  0  0  0  0  0  0  0  0  0  0  0
   -7.4007   -1.3830  -21.2048 N   0  0  0  0  0  0  0  0  0  0  0  0
   -6.6042   -0.8103  -20.1752 C   0  0  0  0  0  0  0  0  0  0  0  0
   -6.9102   -1.0434  -18.8594 C   0  0  0  0  0  0  0  0  0  0  0  0
   -6.2111   -0.5503  -17.8054 N   0  0  0  0  0  0  0  0  0  0  0  0
   -5.1716    0.2061  -18.0737 C   0  0  0  0  0  0  0  0  0  0  0  0
   -4.7326    0.5303  -19.3897 C   0  0  0  0  0  0  0  0  0  0  0  0
   -3.6052    1.3638  -19.6363 C   0  0  0  0  0  0  0  0  0  0  0  0
   -3.2182    1.6534  -20.9164 C   0  0  0  0  0  0  0  0  0  0  0  0
   -3.9382    1.1237  -22.0109 C   0  0  0  0  0  0  0  0  0  0  0  0
   -5.0319    0.3180  -21.7985 C   0  0  0  0  0  0  0  0  0  0  0  0
   -5.4656    0.0034  -20.4819 C   0  0  0  0  0  0  0  0  0  0  0  0
   -5.5870   -0.0707  -22.6479 H   0  0  0  0  0  0  0  0  0  0  0  0
   -3.6452    1.3673  -23.0264 H   0  0  0  0  0  0  0  0  0  0  0  0
   -2.3653    2.3021  -21.0970 H   0  0  0  0  0  0  0  0  0  0  0  0
   -3.0718    1.7741  -18.7824 H   0  0  0  0  0  0  0  0  0  0  0  0
   -4.6222    0.6101  -17.2231 H   0  0  0  0  0  0  0  0  0  0  0  0
   -7.7614   -1.6709  -18.6061 H   0  0  0  0  0  0  0  0  0  0  0  0
   -7.0688   -2.6050  -21.9081 C   0  0  0  0  0  0  0  0  0  0  0  0
   -8.3147   -2.8752  -22.7753 C   0  0  2  0  0  0  0  0  0  0  0  0
   -7.9555   -3.6329  -24.0711 C   0  0  0  0  0  0  0  0  0  0  0  0
   -7.4388   -4.9615  -23.7818 N   0  0  0  0  0  0  0  0  0  0  0  0
   -8.2114   -6.0039  -23.5332 N   0  0  0  0  0  0  0  0  0  0  0  0
   -7.3109   -6.9399  -23.2795 C   0  0  0  0  0  0  0  0  0  0  0  0
   -6.0451   -6.4797  -23.3705 N   0  0  0  0  0  0  0  0  0  0  0  0
   -6.1509   -5.2198  -23.6930 N   0  0  0  0  0  0  0  0  0  0  0  0
   -7.5669   -7.9589  -23.0232 H   0  0  0  0  0  0  0  0  0  0  0  0
   -8.8317   -3.7826  -24.7091 H   0  0  0  0  0  0  0  0  0  0  0  0
   -7.1646   -3.1225  -24.6313 H   0  0  0  0  0  0  0  0  0  0  0  0
   -8.9876   -3.5312  -22.2189 H   0  0  0  0  0  0  0  0  0  0  0  0
   -6.1654   -2.4822  -22.5290 H   0  0  0  0  0  0  0  0  0  0  0  0
   -6.8658   -3.4243  -21.2103 H   0  0  0  0  0  0  0  0  0  0  0  0
  -10.5519   -1.5342  -22.8650 C   0  0  0  0  0  0  0  0  0  0  0  0
  -11.1952   -2.3978  -21.9696 C   0  0  0  0  0  0  0  0  0  0  0  0
  -12.5749   -2.4048  -21.8822 C   0  0  0  0  0  0  0  0  0  0  0  0
  -13.3664   -3.4698  -20.7577 Cl  0  0  0  0  0  0  0  0  0  0  0  0
  -13.3569   -1.5496  -22.6576 C   0  0  0  0  0  0  0  0  0  0  0  0
  -12.7269   -0.6400  -23.4832 C   0  0  0  0  0  0  0  0  0  0  0  0
  -11.3337   -0.5987  -23.5582 C   0  0  0  0  0  0  0  0  0  0  0  0
  -10.6939    0.5451  -24.2898 C   0  0  0  0  0  0  0  0  0  0  0  0
  -11.3410    1.5024  -24.6883 O   0  0  0  0  0  0  0  0  0  0  0  0
  -13.2903    0.0847  -24.0605 H   0  0  0  0  0  0  0  0  0  0  0  0
  -14.4370   -1.5819  -22.5685 H   0  0  0  0  0  0  0  0  0  0  0  0
  -10.6288   -3.0429  -21.3072 H   0  0  0  0  0  0  0  0  0  0  0  0
   -8.8312   -1.4688  -25.1086 H   0  0  0  0  0  0  0  0  0  0  0  0
   -7.5596   -0.5581  -24.2378 H   0  0  0  0  0  0  0  0  0  0  0  0
   -9.3796    2.3239  -25.2550 H   0  0  0  0  0  0  0  0  0  0  0  0
   -7.9752    1.3498  -25.7814 H   0  0  0  0  0  0  0  0  0  0  0  0
   -9.2369    2.8770  -22.7493 H   0  0  0  0  0  0  0  0  0  0  0  0
   -6.7780    2.5618  -21.4355 H   0  0  0  0  0  0  0  0  0  0  0  0
   -6.6812    4.1746  -22.1831 H   0  0  0  0  0  0  0  0  0  0  0  0
   -8.0024    3.8436  -21.0478 H   0  0  0  0  0  0  0  0  0  0  0  0
  1  2  1  0
  2  3  1  0
  3  4  2  0
  3  5  1  0
  5  6  1  0
  6  7  1  0
  8  7  1  6
  8  9  1  0
  9 10  2  0
  9 11  1  0
 11 12  1  0
 12 13  2  0
 13 14  1  0
 14 15  2  0
 15 16  1  0
 16 17  2  0
 17 18  1  0
 18 19  2  0
 19 20  1  0
 20 21  2  0
 20 22  1  0
 19 23  1  0
 18 24  1  0
 17 25  1  0
 15 26  1  0
 13 27  1  0
 11 28  1  0
 28 29  1  0
 29 30  1  0
 30 31  1  0
 31 32  1  0
 32 33  2  0
 33 34  1  0
 34 35  2  0
 33 36  1  0
 30 37  1  0
 30 38  1  0
 29 39  1  1
 28 40  1  0
 28 41  1  0
  8 42  1  0
 42 43  2  0
 43 44  1  0
 44 45  1  0
 44 46  2  0
 46 47  1  0
 47 48  2  0
 48 49  1  0
 49 50  2  0
 47 51  1  0
 46 52  1  0
 43 53  1  0
  7 54  1  0
  7 55  1  0
  5 56  1  0
  5 57  1  0
  2 58  1  0
  1 59  1  0
  1 60  1  0
  1 61  1  0
 49  6  1  0
 29  8  1  0
 35 31  1  0
 48 42  1  0
 21 12  1  0
 21 16  1  0
M  END
>  <cnnaffinities>  (1) 
[6.75978, 6.73877, 6.85801, 6.83801, 6.68633]

>  <score>  (1) 
6.75978

>  <index>  (1) 
16

>  <Smiles>  (1) 
C(N(C(=O)C(N1C([C@@]2(C(=O)N(c3c(nc(c4c(c(c(c(c34)[H])[H])[H])[H])[H])[H])C([C@@]2(C(n2nc(nn2)[H])([H])[H])[H])([H])[H])c2c(c(Cl)c(c(c2C1=O)[H])[H])[H])([H])[H])([H])[H])[H])([H])([H])[H]

>  <h>  (1) 
<NA>

>  <Training>  (1) 
True

>  <Success>  (1) 
True

>  <enamine_searched>  (1) 
False

>  <enamine_id>  (1) 
nan

$$$$
