
     RDKit          3D

 59 63  0  0  0  0  0  0  0  0999 V2000
  -14.6072   -1.0087  -23.6260 C   0  0  0  0  0  0  0  0  0  0  0  0
  -13.7740   -2.1367  -23.2519 N   0  0  0  0  0  0  0  0  0  0  0  0
  -13.4959   -2.4106  -21.9485 C   0  0  0  0  0  0  0  0  0  0  0  0
  -14.0131   -1.8281  -21.0166 O   0  0  0  0  0  0  0  0  0  0  0  0
  -12.5628   -3.6012  -21.7230 C   0  0  0  0  0  0  0  0  0  0  0  0
  -11.2249   -3.5561  -22.2868 N   0  0  0  0  0  0  0  0  0  0  0  0
  -10.0687   -3.2318  -21.4500 C   0  0  0  0  0  0  0  0  0  0  0  0
   -8.8272   -2.8880  -22.3119 C   0  0  2  0  0  0  0  0  0  0  0  0
   -7.6135   -2.6943  -21.3927 C   0  0  0  0  0  0  0  0  0  0  0  0
   -6.9272   -3.5682  -20.8966 O   0  0  0  0  0  0  0  0  0  0  0  0
   -7.3835   -1.3447  -21.2389 N   0  0  0  0  0  0  0  0  0  0  0  0
   -6.5866   -0.8499  -20.1800 C   0  0  0  0  0  0  0  0  0  0  0  0
   -6.9039   -1.1066  -18.8695 C   0  0  0  0  0  0  0  0  0  0  0  0
   -6.2433   -0.5791  -17.8064 N   0  0  0  0  0  0  0  0  0  0  0  0
   -5.2199    0.2021  -18.0665 C   0  0  0  0  0  0  0  0  0  0  0  0
   -4.7645    0.5172  -19.3798 C   0  0  0  0  0  0  0  0  0  0  0  0
   -3.6348    1.3431  -19.6143 C   0  0  0  0  0  0  0  0  0  0  0  0
   -3.2288    1.6116  -20.8931 C   0  0  0  0  0  0  0  0  0  0  0  0
   -3.9257    1.0713  -21.9979 C   0  0  0  0  0  0  0  0  0  0  0  0
   -5.0224    0.2710  -21.7973 C   0  0  0  0  0  0  0  0  0  0  0  0
   -5.4671   -0.0182  -20.4792 C   0  0  0  0  0  0  0  0  0  0  0  0
   -5.5517   -0.1530  -22.6449 H   0  0  0  0  0  0  0  0  0  0  0  0
   -3.5938    1.2949  -23.0081 H   0  0  0  0  0  0  0  0  0  0  0  0
   -2.3676    2.2494  -21.0709 H   0  0  0  0  0  0  0  0  0  0  0  0
   -3.1084    1.7563  -18.7578 H   0  0  0  0  0  0  0  0  0  0  0  0
   -4.6861    0.6279  -17.2157 H   0  0  0  0  0  0  0  0  0  0  0  0
   -7.7413   -1.7596  -18.6308 H   0  0  0  0  0  0  0  0  0  0  0  0
   -8.3727   -0.5228  -21.9181 C   0  0  0  0  0  0  0  0  0  0  0  0
   -8.9766   -1.4508  -22.9988 C   0  0  0  0  0  0  0  0  0  0  0  0
  -10.4178   -1.0212  -23.3041 C   0  0  0  0  0  0  0  0  0  0  0  0
  -10.8702   -1.7200  -24.0132 H   0  0  0  0  0  0  0  0  0  0  0  0
  -10.4354   -0.0223  -23.7513 H   0  0  0  0  0  0  0  0  0  0  0  0
  -11.0287   -0.9932  -22.3966 H   0  0  0  0  0  0  0  0  0  0  0  0
   -8.1965   -1.4005  -24.3216 C   0  0  0  0  0  0  0  0  0  0  0  0
   -8.6266   -2.1265  -25.0201 H   0  0  0  0  0  0  0  0  0  0  0  0
   -8.2742   -0.4094  -24.7781 H   0  0  0  0  0  0  0  0  0  0  0  0
   -7.1387   -1.6576  -24.1945 H   0  0  0  0  0  0  0  0  0  0  0  0
   -9.1557   -0.1976  -21.2126 H   0  0  0  0  0  0  0  0  0  0  0  0
   -7.9187    0.3820  -22.3342 H   0  0  0  0  0  0  0  0  0  0  0  0
   -8.6082   -4.0455  -23.2579 C   0  0  0  0  0  0  0  0  0  0  0  0
   -7.3300   -4.4490  -23.6616 C   0  0  0  0  0  0  0  0  0  0  0  0
   -7.1969   -5.4521  -24.6063 C   0  0  0  0  0  0  0  0  0  0  0  0
   -5.6043   -5.8825  -25.1647 Cl  0  0  0  0  0  0  0  0  0  0  0  0
   -8.3055   -6.1150  -25.1366 C   0  0  0  0  0  0  0  0  0  0  0  0
   -9.5698   -5.6957  -24.7609 C   0  0  0  0  0  0  0  0  0  0  0  0
   -9.7155   -4.6596  -23.8420 C   0  0  0  0  0  0  0  0  0  0  0  0
  -11.0829   -4.2049  -23.4830 C   0  0  0  0  0  0  0  0  0  0  0  0
  -12.0492   -4.4092  -24.2182 O   0  0  0  0  0  0  0  0  0  0  0  0
  -10.4699   -6.1523  -25.1639 H   0  0  0  0  0  0  0  0  0  0  0  0
   -8.1753   -6.9391  -25.8302 H   0  0  0  0  0  0  0  0  0  0  0  0
   -6.4487   -3.9857  -23.2321 H   0  0  0  0  0  0  0  0  0  0  0  0
   -9.8223   -4.0689  -20.7828 H   0  0  0  0  0  0  0  0  0  0  0  0
  -10.2856   -2.3591  -20.8232 H   0  0  0  0  0  0  0  0  0  0  0  0
  -12.5220   -3.8274  -20.6532 H   0  0  0  0  0  0  0  0  0  0  0  0
  -13.0651   -4.3954  -22.2795 H   0  0  0  0  0  0  0  0  0  0  0  0
  -13.4351   -2.7766  -23.9583 H   0  0  0  0  0  0  0  0  0  0  0  0
  -15.0167   -1.2078  -24.6191 H   0  0  0  0  0  0  0  0  0  0  0  0
  -15.4365   -0.9001  -22.9181 H   0  0  0  0  0  0  0  0  0  0  0  0
  -14.0323   -0.0694  -23.6495 H   0  0  0  0  0  0  0  0  0  0  0  0
  1  2  1  0
  2  3  1  0
  3  4  2  0
  3  5  1  0
  5  6  1  0
  6  7  1  0
  8  7  1  1
  8  9  1  0
  9 10  2  0
  9 11  1  0
 11 12  1  0
 12 13  2  0
 13 14  1  0
 14 15  2  0
 15 16  1  0
 16 17  2  0
 17 18  1  0
 18 19  2  0
 19 20  1  0
 20 21  2  0
 20 22  1  0
 19 23  1  0
 18 24  1  0
 17 25  1  0
 15 26  1  0
 13 27  1  0
 11 28  1  0
 28 29  1  0
 29 30  1  0
 30 31  1  0
 30 32  1  0
 30 33  1  0
 29 34  1  0
 34 35  1  0
 34 36  1  0
 34 37  1  0
 28 38  1  0
 28 39  1  0
  8 40  1  0
 40 41  2  0
 41 42  1  0
 42 43  1  0
 42 44  2  0
 44 45  1  0
 45 46  2  0
 46 47  1  0
 47 48  2  0
 45 49  1  0
 44 50  1  0
 41 51  1  0
  7 52  1  0
  7 53  1  0
  5 54  1  0
  5 55  1  0
  2 56  1  0
  1 57  1  0
  1 58  1  0
  1 59  1  0
 47  6  1  0
 29  8  1  0
 46 40  1  0
 21 12  1  0
 21 16  1  0
M  END
>  <cnnaffinities>  (1) 
[6.37428, 6.16141, 6.03675, 6.0468]

>  <score>  (1) 
6.37428

>  <index>  (1) 
57

>  <Smiles>  (1) 
C(N(C(=O)C(N1C([C@@]2(C(=O)N(c3c(nc(c4c(c(c(c(c34)[H])[H])[H])[H])[H])[H])C(C2(C([H])([H])[H])C([H])([H])[H])([H])[H])c2c(c(Cl)c(c(c2C1=O)[H])[H])[H])([H])[H])([H])[H])[H])([H])([H])[H]

>  <h>  (1) 
<NA>

>  <Training>  (1) 
True

>  <Success>  (1) 
True

>  <enamine_searched>  (1) 
False

>  <enamine_id>  (1) 
nan

$$$$
