
     RDKit          3D

 60 65  0  0  0  0  0  0  0  0999 V2000
   -7.0158    3.0862  -22.8513 C   0  0  0  0  0  0  0  0  0  0  0  0
   -8.1187    2.2880  -23.3428 N   0  0  0  0  0  0  0  0  0  0  0  0
   -8.0670    1.6334  -24.5291 C   0  0  0  0  0  0  0  0  0  0  0  0
   -7.0240    1.3752  -25.1046 O   0  0  0  0  0  0  0  0  0  0  0  0
   -9.4434    1.1885  -25.0378 C   0  0  0  0  0  0  0  0  0  0  0  0
  -10.0242    0.1908  -24.1638 N   0  0  0  0  0  0  0  0  0  0  0  0
   -9.3600   -1.0973  -24.0551 C   0  0  0  0  0  0  0  0  0  0  0  0
   -9.5830   -1.7241  -22.6578 C   0  0  2  0  0  0  0  0  0  0  0  0
   -8.9943   -0.7764  -21.5712 C   0  0  0  0  0  0  0  0  0  0  0  0
   -9.4994    0.2205  -21.0996 O   0  0  0  0  0  0  0  0  0  0  0  0
   -7.7542   -1.2572  -21.2179 N   0  0  0  0  0  0  0  0  0  0  0  0
   -6.9675   -0.7007  -20.1841 C   0  0  0  0  0  0  0  0  0  0  0  0
   -7.2534   -0.9970  -18.8742 C   0  0  0  0  0  0  0  0  0  0  0  0
   -6.4970   -0.6079  -17.8177 N   0  0  0  0  0  0  0  0  0  0  0  0
   -5.4184    0.0876  -18.0878 C   0  0  0  0  0  0  0  0  0  0  0  0
   -4.9995    0.4563  -19.3974 C   0  0  0  0  0  0  0  0  0  0  0  0
   -3.8072    1.1936  -19.6257 C   0  0  0  0  0  0  0  0  0  0  0  0
   -3.4204    1.5070  -20.8982 C   0  0  0  0  0  0  0  0  0  0  0  0
   -4.2006    1.1001  -22.0052 C   0  0  0  0  0  0  0  0  0  0  0  0
   -5.3598    0.3873  -21.8078 C   0  0  0  0  0  0  0  0  0  0  0  0
   -5.7912    0.0471  -20.4963 C   0  0  0  0  0  0  0  0  0  0  0  0
   -5.9587    0.0943  -22.6673 H   0  0  0  0  0  0  0  0  0  0  0  0
   -3.8904    1.3633  -23.0149 H   0  0  0  0  0  0  0  0  0  0  0  0
   -2.5133    2.0780  -21.0671 H   0  0  0  0  0  0  0  0  0  0  0  0
   -3.2209    1.4997  -18.7613 H   0  0  0  0  0  0  0  0  0  0  0  0
   -4.8029    0.3938  -17.2424 H   0  0  0  0  0  0  0  0  0  0  0  0
   -8.1288   -1.6010  -18.6440 H   0  0  0  0  0  0  0  0  0  0  0  0
   -7.3692   -2.4616  -21.9157 C   0  0  0  0  0  0  0  0  0  0  0  0
   -8.7174   -2.9956  -22.4189 C   0  0  2  0  0  0  0  0  0  0  0  0
   -8.5556   -4.0761  -23.5066 C   0  0  0  0  0  0  0  0  0  0  0  0
   -7.6387   -3.7571  -24.6586 C   0  0  0  0  0  0  0  0  0  0  0  0
   -8.0324   -3.4284  -25.8828 N   0  0  0  0  0  0  0  0  0  0  0  0
   -6.9093   -3.1989  -26.5631 N   0  0  0  0  0  0  0  0  0  0  0  0
   -5.8837   -3.4041  -25.7838 N   0  0  0  0  0  0  0  0  0  0  0  0
   -6.3130   -3.7686  -24.5764 N   0  0  0  0  0  0  0  0  0  0  0  0
   -8.1298   -4.9628  -23.0263 H   0  0  0  0  0  0  0  0  0  0  0  0
   -9.5322   -4.3539  -23.9056 H   0  0  0  0  0  0  0  0  0  0  0  0
   -9.1812   -3.4939  -21.5619 H   0  0  0  0  0  0  0  0  0  0  0  0
   -6.6931   -2.2310  -22.7501 H   0  0  0  0  0  0  0  0  0  0  0  0
   -6.8594   -3.1603  -21.2422 H   0  0  0  0  0  0  0  0  0  0  0  0
  -11.0887   -1.8456  -22.4893 C   0  0  0  0  0  0  0  0  0  0  0  0
  -11.7145   -2.8749  -21.7705 C   0  0  0  0  0  0  0  0  0  0  0  0
  -13.0773   -2.8004  -21.5134 C   0  0  0  0  0  0  0  0  0  0  0  0
  -13.8640   -3.9869  -20.5158 Cl  0  0  0  0  0  0  0  0  0  0  0  0
  -13.8644   -1.7457  -21.9814 C   0  0  0  0  0  0  0  0  0  0  0  0
  -13.2534   -0.7432  -22.7020 C   0  0  0  0  0  0  0  0  0  0  0  0
  -11.8901   -0.7948  -22.9697 C   0  0  0  0  0  0  0  0  0  0  0  0
  -11.3293    0.3284  -23.7902 C   0  0  0  0  0  0  0  0  0  0  0  0
  -12.0050    1.3087  -24.0821 O   0  0  0  0  0  0  0  0  0  0  0  0
  -13.8041    0.1210  -23.0593 H   0  0  0  0  0  0  0  0  0  0  0  0
  -14.9185   -1.6929  -21.7236 H   0  0  0  0  0  0  0  0  0  0  0  0
  -11.1255   -3.6858  -21.3491 H   0  0  0  0  0  0  0  0  0  0  0  0
   -9.7508   -1.7867  -24.8110 H   0  0  0  0  0  0  0  0  0  0  0  0
   -8.2944   -0.9647  -24.2524 H   0  0  0  0  0  0  0  0  0  0  0  0
   -9.3797    0.8214  -26.0679 H   0  0  0  0  0  0  0  0  0  0  0  0
  -10.1411    2.0299  -25.0273 H   0  0  0  0  0  0  0  0  0  0  0  0
   -9.0205    2.3915  -22.9083 H   0  0  0  0  0  0  0  0  0  0  0  0
   -6.1583    2.8923  -23.5011 H   0  0  0  0  0  0  0  0  0  0  0  0
   -7.2840    4.1469  -22.8964 H   0  0  0  0  0  0  0  0  0  0  0  0
   -6.7558    2.8221  -21.8184 H   0  0  0  0  0  0  0  0  0  0  0  0
  1  2  1  0
  2  3  1  0
  3  4  2  0
  3  5  1  0
  5  6  1  0
  6  7  1  0
  8  7  1  6
  8  9  1  0
  9 10  2  0
  9 11  1  0
 11 12  1  0
 12 13  2  0
 13 14  1  0
 14 15  2  0
 15 16  1  0
 16 17  2  0
 17 18  1  0
 18 19  2  0
 19 20  1  0
 20 21  2  0
 20 22  1  0
 19 23  1  0
 18 24  1  0
 17 25  1  0
 15 26  1  0
 13 27  1  0
 11 28  1  0
 28 29  1  0
 29 30  1  0
 30 31  1  0
 31 32  1  0
 32 33  2  0
 33 34  1  0
 34 35  1  0
 30 36  1  0
 30 37  1  0
 29 38  1  1
 28 39  1  0
 28 40  1  0
  8 41  1  0
 41 42  2  0
 42 43  1  0
 43 44  1  0
 43 45  2  0
 45 46  1  0
 46 47  2  0
 47 48  1  0
 48 49  2  0
 46 50  1  0
 45 51  1  0
 42 52  1  0
  7 53  1  0
  7 54  1  0
  5 55  1  0
  5 56  1  0
  2 57  1  0
  1 58  1  0
  1 59  1  0
  1 60  1  0
 48  6  1  0
 29  8  1  0
 35 31  2  0
 47 41  1  0
 21 12  1  0
 21 16  1  0
M  CHG  1  34  -1
M  END
>  <cnnaffinities>  (1) 
[6.91249, 6.89277, 6.83073, 6.8152]

>  <score>  (1) 
6.91249

>  <index>  (1) 
59

>  <Smiles>  (1) 
C(N(C(=O)C(N1C([C@@]2(C(=O)N(c3c(nc(c4c(c(c(c(c34)[H])[H])[H])[H])[H])[H])C([C@@]2(C(c2nn[n-]n2)([H])[H])[H])([H])[H])c2c(c(Cl)c(c(c2C1=O)[H])[H])[H])([H])[H])([H])[H])[H])([H])([H])[H]

>  <h>  (1) 
<NA>

>  <Training>  (1) 
True

>  <Success>  (1) 
True

>  <enamine_searched>  (1) 
False

>  <enamine_id>  (1) 
nan

$$$$
