
     RDKit          3D

 58 63  0  0  0  0  0  0  0  0999 V2000
   -5.7402    4.0654  -22.3565 C   0  0  0  0  0  0  0  0  0  0  0  0
   -6.8364    3.5294  -23.2189 C   0  0  0  0  0  0  0  0  0  0  0  0
   -6.7735    2.4117  -24.0951 C   0  0  0  0  0  0  0  0  0  0  0  0
   -8.0290    2.3167  -24.6010 C   0  0  0  0  0  0  0  0  0  0  0  0
   -8.6821    1.3114  -25.5009 C   0  0  0  0  0  0  0  0  0  0  0  0
   -9.3938    0.2922  -24.7464 N   0  0  0  0  0  0  0  0  0  0  0  0
   -8.7559   -0.9816  -24.4654 C   0  0  0  0  0  0  0  0  0  0  0  0
   -8.9709   -1.4612  -23.0085 C   0  0  2  0  0  0  0  0  0  0  0  0
   -8.2139   -0.5590  -22.0122 C   0  0  0  0  0  0  0  0  0  0  0  0
   -8.3514    0.6358  -21.8805 O   0  0  0  0  0  0  0  0  0  0  0  0
   -7.3738   -1.3412  -21.2475 N   0  0  0  0  0  0  0  0  0  0  0  0
   -6.5929   -0.8084  -20.1960 C   0  0  0  0  0  0  0  0  0  0  0  0
   -6.8975   -1.0706  -18.8845 C   0  0  0  0  0  0  0  0  0  0  0  0
   -6.2246   -0.5649  -17.8186 N   0  0  0  0  0  0  0  0  0  0  0  0
   -5.1924    0.2076  -18.0785 C   0  0  0  0  0  0  0  0  0  0  0  0
   -4.7448    0.5270  -19.3939 C   0  0  0  0  0  0  0  0  0  0  0  0
   -3.6118    1.3517  -19.6264 C   0  0  0  0  0  0  0  0  0  0  0  0
   -3.1948    1.6177  -20.9037 C   0  0  0  0  0  0  0  0  0  0  0  0
   -3.8889    1.0777  -22.0076 C   0  0  0  0  0  0  0  0  0  0  0  0
   -4.9905    0.2831  -21.8145 C   0  0  0  0  0  0  0  0  0  0  0  0
   -5.4539   -0.0008  -20.4965 C   0  0  0  0  0  0  0  0  0  0  0  0
   -5.5137   -0.1363  -22.6684 H   0  0  0  0  0  0  0  0  0  0  0  0
   -3.5441    1.2978  -23.0162 H   0  0  0  0  0  0  0  0  0  0  0  0
   -2.3271    2.2488  -21.0765 H   0  0  0  0  0  0  0  0  0  0  0  0
   -3.0829    1.7619  -18.7720 H   0  0  0  0  0  0  0  0  0  0  0  0
   -4.6357    0.6132  -17.2313 H   0  0  0  0  0  0  0  0  0  0  0  0
   -7.7598   -1.6930  -18.6456 H   0  0  0  0  0  0  0  0  0  0  0  0
   -7.6371   -2.7527  -21.3874 C   0  0  0  0  0  0  0  0  0  0  0  0
   -8.3705   -2.8763  -22.7380 C   0  0  2  0  0  0  0  0  0  0  0  0
   -7.4666   -3.4598  -23.8260 C   0  0  0  0  0  0  0  0  0  0  0  0
   -7.1236   -4.4545  -23.5234 H   0  0  0  0  0  0  0  0  0  0  0  0
   -6.5841   -2.8405  -24.0109 H   0  0  0  0  0  0  0  0  0  0  0  0
   -8.0106   -3.5878  -24.7665 H   0  0  0  0  0  0  0  0  0  0  0  0
   -9.1874   -3.5947  -22.6537 H   0  0  0  0  0  0  0  0  0  0  0  0
   -8.2729   -3.1088  -20.5706 H   0  0  0  0  0  0  0  0  0  0  0  0
   -6.6980   -3.3134  -21.3593 H   0  0  0  0  0  0  0  0  0  0  0  0
  -10.4702   -1.3799  -22.7416 C   0  0  0  0  0  0  0  0  0  0  0  0
  -11.0987   -2.2603  -21.8631 C   0  0  0  0  0  0  0  0  0  0  0  0
  -12.4711   -2.2000  -21.7190 C   0  0  0  0  0  0  0  0  0  0  0  0
  -13.0586   -3.1596  -20.9868 F   0  0  0  0  0  0  0  0  0  0  0  0
  -13.2494   -1.1726  -22.2428 C   0  0  0  0  0  0  0  0  0  0  0  0
  -12.6105   -0.2469  -23.0460 C   0  0  0  0  0  0  0  0  0  0  0  0
  -11.2501   -0.3791  -23.3310 C   0  0  0  0  0  0  0  0  0  0  0  0
  -10.6512    0.5930  -24.2956 C   0  0  0  0  0  0  0  0  0  0  0  0
  -11.2617    1.5932  -24.6366 O   0  0  0  0  0  0  0  0  0  0  0  0
  -13.1501    0.5935  -23.4680 H   0  0  0  0  0  0  0  0  0  0  0  0
  -14.3110   -1.1294  -22.0161 H   0  0  0  0  0  0  0  0  0  0  0  0
  -10.5567   -3.0121  -21.2993 H   0  0  0  0  0  0  0  0  0  0  0  0
   -9.1872   -1.7390  -25.1268 H   0  0  0  0  0  0  0  0  0  0  0  0
   -7.6910   -0.9074  -24.6977 H   0  0  0  0  0  0  0  0  0  0  0  0
   -9.3991    1.7988  -26.1631 H   0  0  0  0  0  0  0  0  0  0  0  0
   -7.9253    0.8208  -26.1211 H   0  0  0  0  0  0  0  0  0  0  0  0
   -8.7878    3.2963  -24.0955 O   0  0  0  0  0  0  0  0  0  0  0  0
   -8.0341    4.0690  -23.2382 N   0  0  0  0  0  0  0  0  0  0  0  0
   -5.9287    1.7739  -24.2977 H   0  0  0  0  0  0  0  0  0  0  0  0
   -5.6998    3.5051  -21.4163 H   0  0  0  0  0  0  0  0  0  0  0  0
   -4.7685    3.9533  -22.8497 H   0  0  0  0  0  0  0  0  0  0  0  0
   -5.8987    5.1184  -22.1247 H   0  0  0  0  0  0  0  0  0  0  0  0
  1  2  1  0
  2  3  1  0
  3  4  2  0
  4  5  1  0
  5  6  1  0
  6  7  1  0
  8  7  1  6
  8  9  1  0
  9 10  2  0
  9 11  1  0
 11 12  1  0
 12 13  2  0
 13 14  1  0
 14 15  2  0
 15 16  1  0
 16 17  2  0
 17 18  1  0
 18 19  2  0
 19 20  1  0
 20 21  2  0
 20 22  1  0
 19 23  1  0
 18 24  1  0
 17 25  1  0
 15 26  1  0
 13 27  1  0
 11 28  1  0
 28 29  1  0
 29 30  1  0
 30 31  1  0
 30 32  1  0
 30 33  1  0
 29 34  1  1
 28 35  1  0
 28 36  1  0
  8 37  1  0
 37 38  2  0
 38 39  1  0
 39 40  1  0
 39 41  2  0
 41 42  1  0
 42 43  2  0
 43 44  1  0
 44 45  2  0
 42 46  1  0
 41 47  1  0
 38 48  1  0
  7 49  1  0
  7 50  1  0
  5 51  1  0
  5 52  1  0
  4 53  1  0
 53 54  1  0
  3 55  1  0
  1 56  1  0
  1 57  1  0
  1 58  1  0
 54  2  2  0
 44  6  1  0
 29  8  1  0
 43 37  1  0
 21 12  1  0
 21 16  1  0
M  END
>  <cnnaffinities>  (1) 
[6.42405]

>  <score>  (1) 
6.42405

>  <index>  (1) 
67

>  <Smiles>  (1) 
C(c1c(c(C(N2C([C@@]3(C(=O)N(c4c(nc(c5c(c(c(c(c45)[H])[H])[H])[H])[H])[H])C([C@@]3(C([H])([H])[H])[H])([H])[H])c3c(c(F)c(c(c3C2=O)[H])[H])[H])([H])[H])([H])[H])on1)[H])([H])([H])[H]

>  <h>  (1) 
<NA>

>  <Training>  (1) 
True

>  <Success>  (1) 
True

>  <enamine_searched>  (1) 
False

>  <enamine_id>  (1) 
nan

$$$$
