
     RDKit          3D

 58 63  0  0  0  0  0  0  0  0999 V2000
   -7.5254   -3.5833  -23.7420 C   0  0  0  0  0  0  0  0  0  0  0  0
   -8.4190   -2.9140  -22.6927 C   0  0  1  0  0  0  0  0  0  0  0  0
   -7.7204   -2.7345  -21.3294 C   0  0  0  0  0  0  0  0  0  0  0  0
   -7.4087   -1.3234  -21.2571 N   0  0  0  0  0  0  0  0  0  0  0  0
   -6.6137   -0.7874  -20.2161 C   0  0  0  0  0  0  0  0  0  0  0  0
   -6.9097   -1.0653  -18.9041 C   0  0  0  0  0  0  0  0  0  0  0  0
   -6.2354   -0.5750  -17.8337 N   0  0  0  0  0  0  0  0  0  0  0  0
   -5.2030    0.1970  -18.0831 C   0  0  0  0  0  0  0  0  0  0  0  0
   -4.7505    0.5241  -19.3933 C   0  0  0  0  0  0  0  0  0  0  0  0
   -3.6131    1.3489  -19.6056 C   0  0  0  0  0  0  0  0  0  0  0  0
   -3.1817    1.6196  -20.8753 C   0  0  0  0  0  0  0  0  0  0  0  0
   -3.8535    1.0686  -21.9887 C   0  0  0  0  0  0  0  0  0  0  0  0
   -4.9550    0.2703  -21.8092 C   0  0  0  0  0  0  0  0  0  0  0  0
   -5.4524    0.0034  -20.5023 C   0  0  0  0  0  0  0  0  0  0  0  0
   -5.4621   -0.1582  -22.6671 H   0  0  0  0  0  0  0  0  0  0  0  0
   -3.4989    1.2861  -22.9923 H   0  0  0  0  0  0  0  0  0  0  0  0
   -2.3203    2.2621  -21.0377 H   0  0  0  0  0  0  0  0  0  0  0  0
   -3.1013    1.7601  -18.7396 H   0  0  0  0  0  0  0  0  0  0  0  0
   -4.6606    0.5965  -17.2263 H   0  0  0  0  0  0  0  0  0  0  0  0
   -7.7609   -1.7009  -18.6631 H   0  0  0  0  0  0  0  0  0  0  0  0
   -8.1698   -0.5559  -22.1167 C   0  0  0  0  0  0  0  0  0  0  0  0
   -8.1992    0.6550  -22.1170 O   0  0  0  0  0  0  0  0  0  0  0  0
   -8.9721   -1.5000  -23.0445 C   0  0  1  0  0  0  0  0  0  0  0  0
   -8.7495   -1.0904  -24.5202 C   0  0  0  0  0  0  0  0  0  0  0  0
   -9.3113    0.2194  -24.8101 N   0  0  0  0  0  0  0  0  0  0  0  0
   -8.5407    1.1597  -25.6029 C   0  0  0  0  0  0  0  0  0  0  0  0
   -8.4837    0.8285  -27.0796 C   0  0  0  0  0  0  0  0  0  0  0  0
   -9.1336    1.6106  -27.9864 C   0  0  0  0  0  0  0  0  0  0  0  0
   -9.0387    1.3363  -29.4082 C   0  0  0  0  0  0  0  0  0  0  0  0
   -9.5530    1.9333  -30.3360 O   0  0  0  0  0  0  0  0  0  0  0  0
   -8.2461    0.2073  -29.6686 N   0  0  0  0  0  0  0  0  0  0  0  0
   -7.6406   -0.5200  -28.7015 C   0  0  0  0  0  0  0  0  0  0  0  0
   -7.7223   -0.2683  -27.4364 N   0  0  0  0  0  0  0  0  0  0  0  0
   -7.0503   -1.3655  -29.0482 H   0  0  0  0  0  0  0  0  0  0  0  0
   -8.1799   -0.0604  -30.6390 H   0  0  0  0  0  0  0  0  0  0  0  0
   -9.7753    2.4224  -27.6602 H   0  0  0  0  0  0  0  0  0  0  0  0
   -9.0002    2.1439  -25.4541 H   0  0  0  0  0  0  0  0  0  0  0  0
   -7.5236    1.1620  -25.1934 H   0  0  0  0  0  0  0  0  0  0  0  0
  -10.5418    0.6099  -24.3692 C   0  0  0  0  0  0  0  0  0  0  0  0
  -11.0893    1.6238  -24.7825 O   0  0  0  0  0  0  0  0  0  0  0  0
  -11.1861   -0.3090  -23.3764 C   0  0  0  0  0  0  0  0  0  0  0  0
  -12.5499   -0.1473  -23.1468 C   0  0  0  0  0  0  0  0  0  0  0  0
  -13.2379   -1.0528  -22.3690 C   0  0  0  0  0  0  0  0  0  0  0  0
  -12.5231   -2.0925  -21.7933 C   0  0  0  0  0  0  0  0  0  0  0  0
  -13.1654   -2.9323  -20.9637 F   0  0  0  0  0  0  0  0  0  0  0  0
  -11.1637   -2.2323  -21.9395 C   0  0  0  0  0  0  0  0  0  0  0  0
  -10.4677   -1.3553  -22.7764 C   0  0  0  0  0  0  0  0  0  0  0  0
  -10.6980   -3.0459  -21.3970 H   0  0  0  0  0  0  0  0  0  0  0  0
  -14.3030   -0.9881  -22.2071 H   0  0  0  0  0  0  0  0  0  0  0  0
  -13.0609    0.6804  -23.6271 H   0  0  0  0  0  0  0  0  0  0  0  0
   -7.6830   -1.0395  -24.7493 H   0  0  0  0  0  0  0  0  0  0  0  0
   -9.1983   -1.8509  -25.1771 H   0  0  0  0  0  0  0  0  0  0  0  0
   -8.3920   -3.0176  -20.5086 H   0  0  0  0  0  0  0  0  0  0  0  0
   -6.8006   -3.3221  -21.2445 H   0  0  0  0  0  0  0  0  0  0  0  0
   -9.2580   -3.6012  -22.5853 H   0  0  0  0  0  0  0  0  0  0  0  0
   -7.2270   -4.5778  -23.3906 H   0  0  0  0  0  0  0  0  0  0  0  0
   -6.6214   -3.0027  -23.9523 H   0  0  0  0  0  0  0  0  0  0  0  0
   -8.0741   -3.7268  -24.6796 H   0  0  0  0  0  0  0  0  0  0  0  0
  1  2  1  0
  2  3  1  0
  3  4  1  0
  4  5  1  0
  5  6  2  0
  6  7  1  0
  7  8  2  0
  8  9  1  0
  9 10  2  0
 10 11  1  0
 11 12  2  0
 12 13  1  0
 13 14  2  0
 13 15  1  0
 12 16  1  0
 11 17  1  0
 10 18  1  0
  8 19  1  0
  6 20  1  0
  4 21  1  0
 21 22  2  0
 21 23  1  0
 23 24  1  6
 24 25  1  0
 25 26  1  0
 26 27  1  0
 27 28  2  0
 28 29  1  0
 29 30  2  0
 29 31  1  0
 31 32  1  0
 32 33  2  0
 32 34  1  0
 31 35  1  0
 28 36  1  0
 26 37  1  0
 26 38  1  0
 25 39  1  0
 39 40  2  0
 39 41  1  0
 41 42  2  0
 42 43  1  0
 43 44  2  0
 44 45  1  0
 44 46  1  0
 46 47  2  0
 46 48  1  0
 43 49  1  0
 42 50  1  0
 24 51  1  0
 24 52  1  0
  3 53  1  0
  3 54  1  0
  2 55  1  1
  1 56  1  0
  1 57  1  0
  1 58  1  0
 23  2  1  0
 33 27  1  0
 47 41  1  0
 14  5  1  0
 47 23  1  0
 14  9  1  0
M  END
>  <cnnaffinities>  (1) 
[6.15506, 6.15299, 6.48415, 6.39567]

>  <score>  (1) 
6.15506

>  <index>  (1) 
30

>  <Smiles>  (1) 
C([C@]1(C(N(c2c(nc(c3c(c(c(c(c23)[H])[H])[H])[H])[H])[H])C(=O)[C@]21C(N(C(c1c(c(=O)n(c(n1)[H])[H])[H])([H])[H])C(=O)c1c(c(c(F)c(c21)[H])[H])[H])([H])[H])([H])[H])[H])([H])([H])[H]

>  <h>  (1) 
<NA>

>  <Training>  (1) 
True

>  <Success>  (1) 
True

>  <enamine_searched>  (1) 
False

>  <enamine_id>  (1) 
nan

$$$$
