
     RDKit          3D

 41 44  0  0  0  0  0  0  0  0999 V2000
   -8.6552    0.7030  -21.2778 O   0  0  0  0  0  0  0  0  0  0  0  0
   -8.6395   -0.4437  -21.7006 C   0  0  0  0  0  0  0  0  0  0  0  0
   -7.5214   -1.4109  -21.2833 C   0  0  0  0  0  0  0  0  0  0  0  0
   -6.6484   -0.8446  -20.1950 C   0  0  0  0  0  0  0  0  0  0  0  0
   -6.9584   -1.0659  -18.8823 C   0  0  0  0  0  0  0  0  0  0  0  0
   -6.2856   -0.5735  -17.8056 N   0  0  0  0  0  0  0  0  0  0  0  0
   -5.2447    0.1875  -18.0657 C   0  0  0  0  0  0  0  0  0  0  0  0
   -4.7992    0.5096  -19.3767 C   0  0  0  0  0  0  0  0  0  0  0  0
   -3.6634    1.3305  -19.6024 C   0  0  0  0  0  0  0  0  0  0  0  0
   -3.2628    1.6209  -20.8781 C   0  0  0  0  0  0  0  0  0  0  0  0
   -3.9841    1.1140  -21.9793 C   0  0  0  0  0  0  0  0  0  0  0  0
   -5.0923    0.3284  -21.7873 C   0  0  0  0  0  0  0  0  0  0  0  0
   -5.5250   -0.0073  -20.4772 C   0  0  0  0  0  0  0  0  0  0  0  0
   -5.6451   -0.0376  -22.6461 H   0  0  0  0  0  0  0  0  0  0  0  0
   -3.6520    1.3507  -22.9865 H   0  0  0  0  0  0  0  0  0  0  0  0
   -2.3962    2.2522  -21.0478 H   0  0  0  0  0  0  0  0  0  0  0  0
   -3.1237    1.7211  -18.7431 H   0  0  0  0  0  0  0  0  0  0  0  0
   -4.6977    0.5868  -17.2108 H   0  0  0  0  0  0  0  0  0  0  0  0
   -7.8154   -1.6952  -18.6366 H   0  0  0  0  0  0  0  0  0  0  0  0
   -6.9203   -1.6692  -22.1634 H   0  0  0  0  0  0  0  0  0  0  0  0
   -7.9819   -2.3460  -20.9312 H   0  0  0  0  0  0  0  0  0  0  0  0
   -9.6213   -0.9370  -22.5267 N   0  0  0  0  0  0  0  0  0  0  0  0
   -9.5826   -2.2395  -23.2062 C   0  0  0  0  0  0  0  0  0  0  0  0
  -10.3181   -3.3440  -22.4320 C   0  0  0  0  0  0  0  0  0  0  0  0
  -11.5432   -2.7729  -21.6921 C   0  0  0  0  0  0  0  0  0  0  0  0
  -12.4375   -1.8308  -22.4788 C   0  0  0  0  0  0  0  0  0  0  0  0
  -14.1507   -2.0928  -22.6402 S   0  0  0  0  0  0  0  0  0  0  0  0
  -14.3751   -0.5531  -23.3848 C   0  0  0  0  0  0  0  0  0  0  0  0
  -13.2023    0.1218  -23.5031 C   0  0  0  0  0  0  0  0  0  0  0  0
  -12.0752   -0.6085  -22.9777 C   0  0  0  0  0  0  0  0  0  0  0  0
  -10.6821   -0.0068  -22.9078 C   0  0  0  0  0  0  0  0  0  0  0  0
  -10.4214    0.4569  -23.8736 H   0  0  0  0  0  0  0  0  0  0  0  0
  -10.6842    0.8121  -22.1773 H   0  0  0  0  0  0  0  0  0  0  0  0
  -13.1669    1.1185  -23.9399 H   0  0  0  0  0  0  0  0  0  0  0  0
  -15.3640   -0.1718  -23.6171 H   0  0  0  0  0  0  0  0  0  0  0  0
  -11.1190   -2.1578  -20.8909 H   0  0  0  0  0  0  0  0  0  0  0  0
  -12.1342   -3.5529  -21.2047 H   0  0  0  0  0  0  0  0  0  0  0  0
   -9.6605   -3.8057  -21.6847 H   0  0  0  0  0  0  0  0  0  0  0  0
  -10.5823   -4.1523  -23.1268 H   0  0  0  0  0  0  0  0  0  0  0  0
  -10.1164   -2.1202  -24.1572 H   0  0  0  0  0  0  0  0  0  0  0  0
   -8.5490   -2.5412  -23.4311 H   0  0  0  0  0  0  0  0  0  0  0  0
  1  2  2  0
  2  3  1  0
  3  4  1  0
  4  5  2  0
  5  6  1  0
  6  7  2  0
  7  8  1  0
  8  9  2  0
  9 10  1  0
 10 11  2  0
 11 12  1  0
 12 13  2  0
 12 14  1  0
 11 15  1  0
 10 16  1  0
  9 17  1  0
  7 18  1  0
  5 19  1  0
  3 20  1  0
  3 21  1  0
  2 22  1  0
 22 23  1  0
 23 24  1  0
 24 25  1  0
 25 26  1  0
 26 27  1  0
 27 28  1  0
 28 29  2  0
 29 30  1  0
 30 31  1  0
 31 32  1  0
 31 33  1  0
 29 34  1  0
 28 35  1  0
 25 36  1  0
 25 37  1  0
 24 38  1  0
 24 39  1  0
 23 40  1  0
 23 41  1  0
 13  4  1  0
 31 22  1  0
 13  8  1  0
 30 26  2  0
M  END
>  <cnnaffinities>  (1) 
[5.62526, 5.41941, 5.3597, 5.23042, 5.20166, 5.07236, 5.15493, 5.11482, 5.01826, 5.2796]

>  <score>  (1) 
5.62526

>  <index>  (1) 
72

>  <Smiles>  (1) 
O=C(C(c1c(nc(c2c(c(c(c(c12)[H])[H])[H])[H])[H])[H])([H])[H])N1C(C(C(c2sc(c(c2C1([H])[H])[H])[H])([H])[H])([H])[H])([H])[H]

>  <h>  (1) 
<NA>

>  <Training>  (1) 
True

>  <Success>  (1) 
True

>  <enamine_searched>  (1) 
False

>  <enamine_id>  (1) 
nan

$$$$
