
     RDKit          3D

 63 68  0  0  0  0  0  0  0  0999 V2000
   -8.2550   -3.8359  -23.8548 C   0  0  0  0  0  0  0  0  0  0  0  0
   -8.4878   -3.0107  -22.5899 C   0  0  1  0  0  0  0  0  0  0  0  0
   -7.1716   -2.4154  -22.0509 C   0  0  0  0  0  0  0  0  0  0  0  0
   -7.6035   -1.2847  -21.2602 N   0  0  0  0  0  0  0  0  0  0  0  0
   -6.8076   -0.7384  -20.2107 C   0  0  0  0  0  0  0  0  0  0  0  0
   -7.1150   -0.9955  -18.8955 C   0  0  0  0  0  0  0  0  0  0  0  0
   -6.3923   -0.5549  -17.8331 N   0  0  0  0  0  0  0  0  0  0  0  0
   -5.3307    0.1767  -18.0820 C   0  0  0  0  0  0  0  0  0  0  0  0
   -4.8807    0.5083  -19.3926 C   0  0  0  0  0  0  0  0  0  0  0  0
   -3.7431    1.3351  -19.6223 C   0  0  0  0  0  0  0  0  0  0  0  0
   -3.3401    1.6270  -20.8979 C   0  0  0  0  0  0  0  0  0  0  0  0
   -4.0466    1.1058  -22.0005 C   0  0  0  0  0  0  0  0  0  0  0  0
   -5.1431    0.2933  -21.8047 C   0  0  0  0  0  0  0  0  0  0  0  0
   -5.6137    0.0027  -20.4957 C   0  0  0  0  0  0  0  0  0  0  0  0
   -5.6900   -0.0769  -22.6653 H   0  0  0  0  0  0  0  0  0  0  0  0
   -3.7425    1.3662  -23.0103 H   0  0  0  0  0  0  0  0  0  0  0  0
   -2.4850    2.2776  -21.0684 H   0  0  0  0  0  0  0  0  0  0  0  0
   -3.2035    1.7340  -18.7677 H   0  0  0  0  0  0  0  0  0  0  0  0
   -4.7574    0.5448  -17.2264 H   0  0  0  0  0  0  0  0  0  0  0  0
   -7.9787   -1.6100  -18.6533 H   0  0  0  0  0  0  0  0  0  0  0  0
   -8.8807   -0.8721  -21.5705 C   0  0  0  0  0  0  0  0  0  0  0  0
   -9.4554    0.0574  -21.0385 O   0  0  0  0  0  0  0  0  0  0  0  0
   -9.4601   -1.7935  -22.6925 C   0  0  1  0  0  0  0  0  0  0  0  0
   -9.3354   -1.1324  -24.0904 C   0  0  0  0  0  0  0  0  0  0  0  0
  -10.2646   -0.0359  -24.3060 N   0  0  0  0  0  0  0  0  0  0  0  0
   -9.7986    1.0771  -25.1229 C   0  0  0  0  0  0  0  0  0  0  0  0
   -8.5935    1.7302  -24.4259 C   0  0  0  0  0  0  0  0  0  0  0  0
   -7.4732    1.7945  -24.9047 O   0  0  0  0  0  0  0  0  0  0  0  0
   -8.9271    2.1568  -23.1804 N   0  0  0  0  0  0  0  0  0  0  0  0
   -7.9808    2.5186  -22.1523 C   0  0  0  0  0  0  0  0  0  0  0  0
   -7.5065    3.9481  -22.2370 C   0  0  0  0  0  0  0  0  0  0  0  0
   -8.5525    4.8376  -22.2203 F   0  0  0  0  0  0  0  0  0  0  0  0
   -6.3025    4.3409  -23.0279 C   0  0  0  0  0  0  0  0  0  0  0  0
   -6.2794    4.3520  -21.5017 C   0  0  0  0  0  0  0  0  0  0  0  0
   -5.7052    3.5795  -20.9812 H   0  0  0  0  0  0  0  0  0  0  0  0
   -6.3245    5.3165  -21.0066 H   0  0  0  0  0  0  0  0  0  0  0  0
   -5.7880    3.5249  -23.5410 H   0  0  0  0  0  0  0  0  0  0  0  0
   -6.3206    5.3004  -23.5495 H   0  0  0  0  0  0  0  0  0  0  0  0
   -8.4804    2.3243  -21.1968 H   0  0  0  0  0  0  0  0  0  0  0  0
   -7.1172    1.8465  -22.2068 H   0  0  0  0  0  0  0  0  0  0  0  0
   -9.8837    2.0229  -22.8893 H   0  0  0  0  0  0  0  0  0  0  0  0
   -9.5066    0.7665  -26.1321 H   0  0  0  0  0  0  0  0  0  0  0  0
  -10.6284    1.7901  -25.1745 H   0  0  0  0  0  0  0  0  0  0  0  0
  -11.5122    0.0128  -23.7583 C   0  0  0  0  0  0  0  0  0  0  0  0
  -12.2658    0.9664  -23.9277 O   0  0  0  0  0  0  0  0  0  0  0  0
  -11.9100   -1.1556  -22.9247 C   0  0  0  0  0  0  0  0  0  0  0  0
  -13.2589   -1.2667  -22.5843 C   0  0  0  0  0  0  0  0  0  0  0  0
  -13.6863   -2.2640  -21.7363 C   0  0  0  0  0  0  0  0  0  0  0  0
  -12.7263   -3.1349  -21.2401 C   0  0  0  0  0  0  0  0  0  0  0  0
  -13.1109   -4.0243  -20.3107 F   0  0  0  0  0  0  0  0  0  0  0  0
  -11.3945   -3.0819  -21.6130 C   0  0  0  0  0  0  0  0  0  0  0  0
  -10.9436   -2.0572  -22.4483 C   0  0  0  0  0  0  0  0  0  0  0  0
  -10.7163   -3.8131  -21.1889 H   0  0  0  0  0  0  0  0  0  0  0  0
  -14.7234   -2.3824  -21.4399 H   0  0  0  0  0  0  0  0  0  0  0  0
  -13.9482   -0.5277  -22.9778 H   0  0  0  0  0  0  0  0  0  0  0  0
   -9.5091   -1.9053  -24.8476 H   0  0  0  0  0  0  0  0  0  0  0  0
   -8.3194   -0.7480  -24.2279 H   0  0  0  0  0  0  0  0  0  0  0  0
   -6.5155   -2.1107  -22.8817 H   0  0  0  0  0  0  0  0  0  0  0  0
   -6.6089   -3.1200  -21.4325 H   0  0  0  0  0  0  0  0  0  0  0  0
   -8.8738   -3.6718  -21.8089 H   0  0  0  0  0  0  0  0  0  0  0  0
   -7.7591   -3.2361  -24.6278 H   0  0  0  0  0  0  0  0  0  0  0  0
   -7.6030   -4.6908  -23.6454 H   0  0  0  0  0  0  0  0  0  0  0  0
   -9.1867   -4.2216  -24.2824 H   0  0  0  0  0  0  0  0  0  0  0  0
  1  2  1  0
  2  3  1  0
  3  4  1  0
  4  5  1  0
  5  6  2  0
  6  7  1  0
  7  8  2  0
  8  9  1  0
  9 10  2  0
 10 11  1  0
 11 12  2  0
 12 13  1  0
 13 14  2  0
 13 15  1  0
 12 16  1  0
 11 17  1  0
 10 18  1  0
  8 19  1  0
  6 20  1  0
  4 21  1  0
 21 22  2  0
 21 23  1  0
 23 24  1  6
 24 25  1  0
 25 26  1  0
 26 27  1  0
 27 28  2  0
 27 29  1  0
 29 30  1  0
 30 31  1  0
 31 32  1  0
 31 33  1  0
 33 34  1  0
 34 35  1  0
 34 36  1  0
 33 37  1  0
 33 38  1  0
 30 39  1  0
 30 40  1  0
 29 41  1  0
 26 42  1  0
 26 43  1  0
 25 44  1  0
 44 45  2  0
 44 46  1  0
 46 47  2  0
 47 48  1  0
 48 49  2  0
 49 50  1  0
 49 51  1  0
 51 52  2  0
 51 53  1  0
 48 54  1  0
 47 55  1  0
 24 56  1  0
 24 57  1  0
  3 58  1  0
  3 59  1  0
  2 60  1  1
  1 61  1  0
  1 62  1  0
  1 63  1  0
 23  2  1  0
 34 31  1  0
 52 46  1  0
 14  5  1  0
 52 23  1  0
 14  9  1  0
M  END
>  <cnnaffinities>  (1) 
[6.78248]

>  <score>  (1) 
6.78248

>  <index>  (1) 
84

>  <Smiles>  (1) 
C([C@]1(C(N(c2c(nc(c3c(c(c(c(c23)[H])[H])[H])[H])[H])[H])C(=O)[C@]21C(N(C(C(=O)N(C(C1(F)C(C1([H])[H])([H])[H])([H])[H])[H])([H])[H])C(=O)c1c(c(c(F)c(c21)[H])[H])[H])([H])[H])([H])[H])[H])([H])([H])[H]

>  <h>  (1) 
<NA>

>  <Training>  (1) 
True

>  <Success>  (1) 
True

>  <enamine_searched>  (1) 
False

>  <enamine_id>  (1) 
nan

$$$$
