
     RDKit          3D

 56 61  0  0  0  0  0  0  0  0999 V2000
  -10.2265   -2.9495  -22.0456 C   0  0  0  0  0  0  0  0  0  0  0  0
   -9.1616   -2.0078  -22.6315 C   0  0  1  0  0  0  0  0  0  0  0  0
   -8.6693   -1.0059  -21.5708 C   0  0  0  0  0  0  0  0  0  0  0  0
   -7.3556   -1.4848  -21.1917 N   0  0  0  0  0  0  0  0  0  0  0  0
   -6.5782   -0.8698  -20.1793 C   0  0  0  0  0  0  0  0  0  0  0  0
   -6.9201   -1.0559  -18.8707 C   0  0  0  0  0  0  0  0  0  0  0  0
   -6.2448   -0.5373  -17.8084 N   0  0  0  0  0  0  0  0  0  0  0  0
   -5.2004    0.2068  -18.0782 C   0  0  0  0  0  0  0  0  0  0  0  0
   -4.7531    0.5103  -19.3962 C   0  0  0  0  0  0  0  0  0  0  0  0
   -3.6253    1.3469  -19.6242 C   0  0  0  0  0  0  0  0  0  0  0  0
   -3.2386    1.6569  -20.8937 C   0  0  0  0  0  0  0  0  0  0  0  0
   -3.9606    1.1455  -22.0034 C   0  0  0  0  0  0  0  0  0  0  0  0
   -5.0438    0.3293  -21.8163 C   0  0  0  0  0  0  0  0  0  0  0  0
   -5.4620   -0.0237  -20.4952 C   0  0  0  0  0  0  0  0  0  0  0  0
   -5.5906   -0.0559  -22.6787 H   0  0  0  0  0  0  0  0  0  0  0  0
   -3.6473    1.4114  -23.0083 H   0  0  0  0  0  0  0  0  0  0  0  0
   -2.3837    2.3043  -21.0687 H   0  0  0  0  0  0  0  0  0  0  0  0
   -3.0944    1.7425  -18.7619 H   0  0  0  0  0  0  0  0  0  0  0  0
   -4.6476    0.6173  -17.2314 H   0  0  0  0  0  0  0  0  0  0  0  0
   -7.7787   -1.6793  -18.6217 H   0  0  0  0  0  0  0  0  0  0  0  0
   -6.8594   -2.4551  -22.0155 C   0  0  0  0  0  0  0  0  0  0  0  0
   -5.7810   -2.9940  -21.8599 O   0  0  0  0  0  0  0  0  0  0  0  0
   -7.8717   -2.7159  -23.1532 C   0  0  1  0  0  0  0  0  0  0  0  0
   -8.0700   -4.2371  -23.3415 C   0  0  0  0  0  0  0  0  0  0  0  0
   -6.9199   -4.8758  -23.9625 N   0  0  0  0  0  0  0  0  0  0  0  0
   -6.3335   -6.0993  -23.3791 C   0  0  0  0  0  0  0  0  0  0  0  0
   -5.1694   -5.8340  -22.6227 C   0  0  0  0  0  0  0  0  0  0  0  0
   -5.0215   -6.1462  -21.1210 C   0  0  0  0  0  0  0  0  0  0  0  0
   -5.0214   -6.1463  -21.1212 C   0  0  0  0  0  0  0  0  0  0  0  0
   -3.1397   -6.0401  -22.1830 N   0  0  0  0  0  0  0  0  0  0  0  0
   -3.9996   -5.8601  -23.0671 N   0  0  0  0  0  0  0  0  0  0  0  0
   -2.1982   -5.9213  -22.5957 H   0  0  0  0  0  0  0  0  0  0  0  0
   -5.2098   -5.8417  -19.8620 H   0  0  0  0  0  0  0  0  0  0  0  0
   -6.2204   -5.7510  -20.9554 H   0  0  0  0  0  0  0  0  0  0  0  0
   -6.1000   -6.7233  -24.2582 H   0  0  0  0  0  0  0  0  0  0  0  0
   -7.0787   -6.6567  -22.8122 H   0  0  0  0  0  0  0  0  0  0  0  0
   -6.3225   -4.3475  -25.0767 C   0  0  0  0  0  0  0  0  0  0  0  0
   -5.5523   -4.9830  -25.7854 O   0  0  0  0  0  0  0  0  0  0  0  0
   -6.6173   -2.9049  -25.3540 C   0  0  0  0  0  0  0  0  0  0  0  0
   -6.0842   -2.3573  -26.5214 C   0  0  0  0  0  0  0  0  0  0  0  0
   -6.2858   -1.0286  -26.8372 C   0  0  0  0  0  0  0  0  0  0  0  0
   -7.0119   -0.2550  -25.9398 C   0  0  0  0  0  0  0  0  0  0  0  0
   -7.2285    1.0411  -26.2405 F   0  0  0  0  0  0  0  0  0  0  0  0
   -7.5332   -0.7623  -24.7619 C   0  0  0  0  0  0  0  0  0  0  0  0
   -7.3529   -2.1202  -24.4561 C   0  0  0  0  0  0  0  0  0  0  0  0
   -8.0840   -0.0847  -24.1186 H   0  0  0  0  0  0  0  0  0  0  0  0
   -5.9037   -0.5820  -27.7482 H   0  0  0  0  0  0  0  0  0  0  0  0
   -5.5075   -3.0052  -27.1705 H   0  0  0  0  0  0  0  0  0  0  0  0
   -8.9654   -4.3892  -23.9508 H   0  0  0  0  0  0  0  0  0  0  0  0
   -8.2375   -4.7057  -22.3690 H   0  0  0  0  0  0  0  0  0  0  0  0
   -8.6299    0.0260  -21.9425 H   0  0  0  0  0  0  0  0  0  0  0  0
   -9.3301   -1.0007  -20.7053 H   0  0  0  0  0  0  0  0  0  0  0  0
   -9.6421   -1.4775  -23.4618 H   0  0  0  0  0  0  0  0  0  0  0  0
   -9.8319   -3.5336  -21.2069 H   0  0  0  0  0  0  0  0  0  0  0  0
  -10.5998   -3.6476  -22.7986 H   0  0  0  0  0  0  0  0  0  0  0  0
  -11.0857   -2.3776  -21.6805 H   0  0  0  0  0  0  0  0  0  0  0  0
  1  2  1  0
  2  3  1  0
  3  4  1  0
  4  5  1  0
  5  6  2  0
  6  7  1  0
  7  8  2  0
  8  9  1  0
  9 10  2  0
 10 11  1  0
 11 12  2  0
 12 13  1  0
 13 14  2  0
 13 15  1  0
 12 16  1  0
 11 17  1  0
 10 18  1  0
  8 19  1  0
  6 20  1  0
  4 21  1  0
 21 22  2  0
 21 23  1  0
 23 24  1  6
 24 25  1  0
 25 26  1  0
 26 27  1  0
 27 28  1  0
 28 29  2  0
 29 30  1  0
 30 31  1  0
 30 32  1  0
 29 33  1  0
 28 34  1  0
 26 35  1  0
 26 36  1  0
 25 37  1  0
 37 38  2  0
 37 39  1  0
 39 40  2  0
 40 41  1  0
 41 42  2  0
 42 43  1  0
 42 44  1  0
 44 45  2  0
 44 46  1  0
 41 47  1  0
 40 48  1  0
 24 49  1  0
 24 50  1  0
  3 51  1  0
  3 52  1  0
  2 53  1  6
  1 54  1  0
  1 55  1  0
  1 56  1  0
 23  2  1  0
 31 27  2  0
 45 39  1  0
 14  5  1  0
 45 23  1  0
 14  9  1  0
M  END
>  <cnnaffinities>  (1) 
[5.94903]

>  <score>  (1) 
5.94903

>  <index>  (1) 
18

>  <Smiles>  (1) 
C([C@]1(C(N(c2c(nc(c3c(c(c(c(c23)[H])[H])[H])[H])[H])[H])C(=O)[C@]21C(N(C(c1c(c(n(n1)[H])[H])[H])([H])[H])C(=O)c1c(c(c(F)c(c21)[H])[H])[H])([H])[H])([H])[H])[H])([H])([H])[H]

>  <h>  (1) 
<NA>

>  <Training>  (1) 
True

>  <Success>  (1) 
True

>  <enamine_searched>  (1) 
False

>  <enamine_id>  (1) 
nan

$$$$
