
     RDKit          3D

 56 60  0  0  0  0  0  0  0  0999 V2000
   -7.3038    3.4495  -21.8985 C   0  0  0  0  0  0  0  0  0  0  0  0
   -8.1377    2.9707  -22.9847 N   0  0  0  0  0  0  0  0  0  0  0  0
   -7.5593    2.2561  -23.9796 C   0  0  0  0  0  0  0  0  0  0  0  0
   -6.3439    2.1252  -24.0710 O   0  0  0  0  0  0  0  0  0  0  0  0
   -8.5076    1.6296  -25.0094 C   0  0  0  0  0  0  0  0  0  0  0  0
   -9.2534    0.4905  -24.5043 N   0  0  0  0  0  0  0  0  0  0  0  0
   -8.5663   -0.7709  -24.3090 C   0  0  0  0  0  0  0  0  0  0  0  0
   -8.9914   -1.4586  -22.9840 C   0  0  2  0  0  0  0  0  0  0  0  0
   -8.4404   -0.6672  -21.7676 C   0  0  0  0  0  0  0  0  0  0  0  0
   -8.8314    0.4048  -21.3480 O   0  0  0  0  0  0  0  0  0  0  0  0
   -7.4086   -1.3774  -21.1991 N   0  0  0  0  0  0  0  0  0  0  0  0
   -6.6069   -0.8053  -20.1734 C   0  0  0  0  0  0  0  0  0  0  0  0
   -6.9088   -1.0422  -18.8570 C   0  0  0  0  0  0  0  0  0  0  0  0
   -6.2081   -0.5508  -17.8043 N   0  0  0  0  0  0  0  0  0  0  0  0
   -5.1698    0.2076  -18.0731 C   0  0  0  0  0  0  0  0  0  0  0  0
   -4.7333    0.5325  -19.3901 C   0  0  0  0  0  0  0  0  0  0  0  0
   -3.6037    1.3629  -19.6358 C   0  0  0  0  0  0  0  0  0  0  0  0
   -3.2127    1.6491  -20.9166 C   0  0  0  0  0  0  0  0  0  0  0  0
   -3.9314    1.1157  -22.0112 C   0  0  0  0  0  0  0  0  0  0  0  0
   -5.0273    0.3126  -21.7982 C   0  0  0  0  0  0  0  0  0  0  0  0
   -5.4675    0.0065  -20.4811 C   0  0  0  0  0  0  0  0  0  0  0  0
   -5.5757   -0.0824  -22.6486 H   0  0  0  0  0  0  0  0  0  0  0  0
   -3.6370    1.3564  -23.0266 H   0  0  0  0  0  0  0  0  0  0  0  0
   -2.3594    2.2957  -21.0975 H   0  0  0  0  0  0  0  0  0  0  0  0
   -3.0711    1.7746  -18.7827 H   0  0  0  0  0  0  0  0  0  0  0  0
   -4.6214    0.6116  -17.2226 H   0  0  0  0  0  0  0  0  0  0  0  0
   -7.7583   -1.6707  -18.6024 H   0  0  0  0  0  0  0  0  0  0  0  0
   -7.0885   -2.6148  -21.8821 C   0  0  0  0  0  0  0  0  0  0  0  0
   -8.2973   -2.8539  -22.8178 C   0  0  2  0  0  0  0  0  0  0  0  0
   -7.8912   -3.5978  -24.0991 C   0  0  0  0  0  0  0  0  0  0  0  0
   -7.4774   -4.5857  -23.8606 H   0  0  0  0  0  0  0  0  0  0  0  0
   -8.7421   -3.7495  -24.7733 H   0  0  0  0  0  0  0  0  0  0  0  0
   -7.1198   -3.0491  -24.6553 H   0  0  0  0  0  0  0  0  0  0  0  0
   -9.0130   -3.4834  -22.2833 H   0  0  0  0  0  0  0  0  0  0  0  0
   -6.1500   -2.5263  -22.4546 H   0  0  0  0  0  0  0  0  0  0  0  0
   -6.9487   -3.4293  -21.1587 H   0  0  0  0  0  0  0  0  0  0  0  0
  -10.5131   -1.4638  -22.9146 C   0  0  0  0  0  0  0  0  0  0  0  0
  -11.1761   -2.2991  -22.0086 C   0  0  0  0  0  0  0  0  0  0  0  0
  -12.5577   -2.3007  -21.9141 C   0  0  0  0  0  0  0  0  0  0  0  0
  -13.3138   -1.4358  -22.7092 C   0  0  0  0  0  0  0  0  0  0  0  0
  -12.6713   -0.5483  -23.5524 C   0  0  0  0  0  0  0  0  0  0  0  0
  -11.2776   -0.5303  -23.6273 C   0  0  0  0  0  0  0  0  0  0  0  0
  -10.6127    0.5898  -24.3767 C   0  0  0  0  0  0  0  0  0  0  0  0
  -11.2384    1.5509  -24.8023 O   0  0  0  0  0  0  0  0  0  0  0  0
  -13.2166    0.1765  -24.1451 H   0  0  0  0  0  0  0  0  0  0  0  0
  -14.3968   -1.4337  -22.6359 H   0  0  0  0  0  0  0  0  0  0  0  0
  -13.0478   -2.9653  -21.2089 H   0  0  0  0  0  0  0  0  0  0  0  0
  -10.6055   -2.9416  -21.3432 H   0  0  0  0  0  0  0  0  0  0  0  0
   -7.4937   -0.5484  -24.2783 H   0  0  0  0  0  0  0  0  0  0  0  0
   -8.7654   -1.4577  -25.1499 H   0  0  0  0  0  0  0  0  0  0  0  0
   -7.8709    1.3389  -25.8514 H   0  0  0  0  0  0  0  0  0  0  0  0
   -9.2682    2.3346  -25.3597 H   0  0  0  0  0  0  0  0  0  0  0  0
   -9.1449    2.9355  -22.8700 H   0  0  0  0  0  0  0  0  0  0  0  0
   -6.7295    2.6143  -21.4580 H   0  0  0  0  0  0  0  0  0  0  0  0
   -6.5849    4.1979  -22.2595 H   0  0  0  0  0  0  0  0  0  0  0  0
   -7.9560    3.9163  -21.1573 H   0  0  0  0  0  0  0  0  0  0  0  0
  1  2  1  0
  2  3  1  0
  3  4  2  0
  3  5  1  0
  5  6  1  0
  6  7  1  0
  8  7  1  6
  8  9  1  0
  9 10  2  0
  9 11  1  0
 11 12  1  0
 12 13  2  0
 13 14  1  0
 14 15  2  0
 15 16  1  0
 16 17  2  0
 17 18  1  0
 18 19  2  0
 19 20  1  0
 20 21  2  0
 20 22  1  0
 19 23  1  0
 18 24  1  0
 17 25  1  0
 15 26  1  0
 13 27  1  0
 11 28  1  0
 28 29  1  0
 29 30  1  0
 30 31  1  0
 30 32  1  0
 30 33  1  0
 29 34  1  1
 28 35  1  0
 28 36  1  0
  8 37  1  0
 37 38  2  0
 38 39  1  0
 39 40  2  0
 40 41  1  0
 41 42  2  0
 42 43  1  0
 43 44  2  0
 41 45  1  0
 40 46  1  0
 39 47  1  0
 38 48  1  0
  7 49  1  0
  7 50  1  0
  5 51  1  0
  5 52  1  0
  2 53  1  0
  1 54  1  0
  1 55  1  0
  1 56  1  0
 43  6  1  0
 29  8  1  0
 42 37  1  0
 21 12  1  0
 21 16  1  0
M  END
>  <cnnaffinities>  (1) 
[6.28833, 6.27005]

>  <score>  (1) 
6.28833

>  <index>  (1) 
37

>  <Smiles>  (1) 
C(N(C(=O)C(N1C([C@@]2(C(=O)N(c3c(nc(c4c(c(c(c(c34)[H])[H])[H])[H])[H])[H])C([C@@]2(C([H])([H])[H])[H])([H])[H])c2c(c(c(c(c2C1=O)[H])[H])[H])[H])([H])[H])([H])[H])[H])([H])([H])[H]

>  <h>  (1) 
<NA>

>  <Training>  (1) 
True

>  <Success>  (1) 
True

>  <enamine_searched>  (1) 
False

>  <enamine_id>  (1) 
nan

$$$$
