
     RDKit          3D

 58 62  0  0  0  0  0  0  0  0999 V2000
   -7.0524    3.5738  -22.0855 C   0  0  0  0  0  0  0  0  0  0  0  0
   -7.2927    2.5347  -23.0925 N   0  0  0  0  0  0  0  0  0  0  0  0
   -8.4517    2.8307  -23.9850 C   0  0  0  0  0  0  0  0  0  0  0  0
   -8.7290    1.6733  -24.9460 C   0  0  0  0  0  0  0  0  0  0  0  0
   -9.3848    0.5307  -24.3146 N   0  0  0  0  0  0  0  0  0  0  0  0
   -8.6793   -0.7301  -24.1869 C   0  0  0  0  0  0  0  0  0  0  0  0
   -9.0717   -1.4874  -22.8944 C   0  0  2  0  0  0  0  0  0  0  0  0
   -8.5332   -0.7323  -21.6545 C   0  0  0  0  0  0  0  0  0  0  0  0
   -8.9713    0.2946  -21.1708 O   0  0  0  0  0  0  0  0  0  0  0  0
   -7.4165   -1.3861  -21.1877 N   0  0  0  0  0  0  0  0  0  0  0  0
   -6.6058   -0.8074  -20.1699 C   0  0  0  0  0  0  0  0  0  0  0  0
   -6.9118   -1.0415  -18.8553 C   0  0  0  0  0  0  0  0  0  0  0  0
   -6.2076   -0.5516  -17.8041 N   0  0  0  0  0  0  0  0  0  0  0  0
   -5.1718    0.2057  -18.0796 C   0  0  0  0  0  0  0  0  0  0  0  0
   -4.7406    0.5360  -19.3962 C   0  0  0  0  0  0  0  0  0  0  0  0
   -3.6144    1.3698  -19.6398 C   0  0  0  0  0  0  0  0  0  0  0  0
   -3.2296    1.6690  -20.9182 C   0  0  0  0  0  0  0  0  0  0  0  0
   -3.9484    1.1415  -22.0136 C   0  0  0  0  0  0  0  0  0  0  0  0
   -5.0394    0.3289  -21.8057 C   0  0  0  0  0  0  0  0  0  0  0  0
   -5.4751    0.0095  -20.4888 C   0  0  0  0  0  0  0  0  0  0  0  0
   -5.5662   -0.0825  -22.6627 H   0  0  0  0  0  0  0  0  0  0  0  0
   -3.6425    1.3840  -23.0284 H   0  0  0  0  0  0  0  0  0  0  0  0
   -2.3748    2.3171  -21.0967 H   0  0  0  0  0  0  0  0  0  0  0  0
   -3.0793    1.7727  -18.7833 H   0  0  0  0  0  0  0  0  0  0  0  0
   -4.6212    0.6090  -17.2288 H   0  0  0  0  0  0  0  0  0  0  0  0
   -7.7630   -1.6700  -18.6023 H   0  0  0  0  0  0  0  0  0  0  0  0
   -7.0560   -2.5662  -21.9513 C   0  0  0  0  0  0  0  0  0  0  0  0
   -8.3154   -2.8521  -22.8000 C   0  0  2  0  0  0  0  0  0  0  0  0
   -7.9753   -3.5591  -24.1218 C   0  0  0  0  0  0  0  0  0  0  0  0
   -7.5187   -4.5414  -23.9382 H   0  0  0  0  0  0  0  0  0  0  0  0
   -8.8632   -3.7173  -24.7476 H   0  0  0  0  0  0  0  0  0  0  0  0
   -7.2547   -2.9747  -24.7121 H   0  0  0  0  0  0  0  0  0  0  0  0
   -8.9600   -3.5135  -22.2158 H   0  0  0  0  0  0  0  0  0  0  0  0
   -6.8014   -3.3946  -21.2779 H   0  0  0  0  0  0  0  0  0  0  0  0
   -6.1748   -2.3844  -22.5888 H   0  0  0  0  0  0  0  0  0  0  0  0
  -10.5868   -1.5595  -22.8258 C   0  0  0  0  0  0  0  0  0  0  0  0
  -11.2301   -2.5151  -22.0296 C   0  0  0  0  0  0  0  0  0  0  0  0
  -12.6068   -2.5165  -21.9508 C   0  0  0  0  0  0  0  0  0  0  0  0
  -13.2145   -3.4363  -21.1822 F   0  0  0  0  0  0  0  0  0  0  0  0
  -13.3948   -1.5898  -22.6238 C   0  0  0  0  0  0  0  0  0  0  0  0
  -12.7633   -0.6078  -23.3584 C   0  0  0  0  0  0  0  0  0  0  0  0
  -11.3708   -0.5690  -23.4393 C   0  0  0  0  0  0  0  0  0  0  0  0
  -10.7358    0.6027  -24.1333 C   0  0  0  0  0  0  0  0  0  0  0  0
  -11.3906    1.5708  -24.5008 O   0  0  0  0  0  0  0  0  0  0  0  0
  -13.3211    0.1699  -23.8678 H   0  0  0  0  0  0  0  0  0  0  0  0
  -14.4717   -1.6444  -22.5295 H   0  0  0  0  0  0  0  0  0  0  0  0
  -10.6891   -3.2447  -21.4371 H   0  0  0  0  0  0  0  0  0  0  0  0
   -8.8834   -1.3802  -25.0528 H   0  0  0  0  0  0  0  0  0  0  0  0
   -7.6065   -0.5080  -24.1547 H   0  0  0  0  0  0  0  0  0  0  0  0
   -7.7854    1.3191  -25.3802 H   0  0  0  0  0  0  0  0  0  0  0  0
   -9.3806    2.0238  -25.7506 H   0  0  0  0  0  0  0  0  0  0  0  0
   -9.3366    3.0133  -23.3661 H   0  0  0  0  0  0  0  0  0  0  0  0
   -8.2472    3.7430  -24.5571 H   0  0  0  0  0  0  0  0  0  0  0  0
   -6.4278    2.4167  -23.6736 H   0  0  0  0  0  0  0  0  0  0  0  0
   -7.4985    1.6380  -22.5992 H   0  0  0  0  0  0  0  0  0  0  0  0
   -6.1809    3.3004  -21.4880 H   0  0  0  0  0  0  0  0  0  0  0  0
   -7.9292    3.6731  -21.4369 H   0  0  0  0  0  0  0  0  0  0  0  0
   -6.8828    4.5517  -22.5529 H   0  0  0  0  0  0  0  0  0  0  0  0
  1  2  1  0
  2  3  1  0
  3  4  1  0
  4  5  1  0
  5  6  1  0
  7  6  1  6
  7  8  1  0
  8  9  2  0
  8 10  1  0
 10 11  1  0
 11 12  2  0
 12 13  1  0
 13 14  2  0
 14 15  1  0
 15 16  2  0
 16 17  1  0
 17 18  2  0
 18 19  1  0
 19 20  2  0
 19 21  1  0
 18 22  1  0
 17 23  1  0
 16 24  1  0
 14 25  1  0
 12 26  1  0
 10 27  1  0
 27 28  1  0
 28 29  1  0
 29 30  1  0
 29 31  1  0
 29 32  1  0
 28 33  1  1
 27 34  1  0
 27 35  1  0
  7 36  1  0
 36 37  2  0
 37 38  1  0
 38 39  1  0
 38 40  2  0
 40 41  1  0
 41 42  2  0
 42 43  1  0
 43 44  2  0
 41 45  1  0
 40 46  1  0
 37 47  1  0
  6 48  1  0
  6 49  1  0
  4 50  1  0
  4 51  1  0
  3 52  1  0
  3 53  1  0
  2 54  1  0
  2 55  1  0
  1 56  1  0
  1 57  1  0
  1 58  1  0
 43  5  1  0
 28  7  1  0
 42 36  1  0
 20 11  1  0
 20 15  1  0
M  CHG  1   2   1
M  END
>  <cnnaffinities>  (1) 
[6.3767]

>  <score>  (1) 
6.3767

>  <index>  (1) 
27

>  <Smiles>  (1) 
C([N+](C(C(N1C([C@@]2(C(=O)N(c3c(nc(c4c(c(c(c(c34)[H])[H])[H])[H])[H])[H])C([C@@]2(C([H])([H])[H])[H])([H])[H])c2c(c(F)c(c(c2C1=O)[H])[H])[H])([H])[H])([H])[H])([H])[H])([H])[H])([H])([H])[H]

>  <h>  (1) 
<NA>

>  <Training>  (1) 
True

>  <Success>  (1) 
True

>  <enamine_searched>  (1) 
False

>  <enamine_id>  (1) 
nan

$$$$
