
     RDKit          3D

 57 62  0  0  0  0  0  0  0  0999 V2000
   -8.9102    1.0576  -29.3914 C   0  0  0  0  0  0  0  0  0  0  0  0
   -8.9217    1.3861  -27.9787 N   0  0  0  0  0  0  0  0  0  0  0  0
   -8.1427    0.6490  -27.1403 C   0  0  0  0  0  0  0  0  0  0  0  0
   -7.4160   -0.2570  -27.5188 O   0  0  0  0  0  0  0  0  0  0  0  0
   -8.2250    1.0563  -25.6696 C   0  0  0  0  0  0  0  0  0  0  0  0
   -9.0896    0.1831  -24.9064 N   0  0  0  0  0  0  0  0  0  0  0  0
   -8.6159   -1.1353  -24.5349 C   0  0  0  0  0  0  0  0  0  0  0  0
   -8.9442   -1.4839  -23.0632 C   0  0  2  0  0  0  0  0  0  0  0  0
   -8.1504   -0.5670  -22.1057 C   0  0  0  0  0  0  0  0  0  0  0  0
   -8.1736    0.6442  -22.0816 O   0  0  0  0  0  0  0  0  0  0  0  0
   -7.3933   -1.3400  -21.2460 N   0  0  0  0  0  0  0  0  0  0  0  0
   -6.5988   -0.8064  -20.2051 C   0  0  0  0  0  0  0  0  0  0  0  0
   -6.9047   -1.0682  -18.8915 C   0  0  0  0  0  0  0  0  0  0  0  0
   -6.2316   -0.5675  -17.8255 N   0  0  0  0  0  0  0  0  0  0  0  0
   -5.1962    0.1996  -18.0816 C   0  0  0  0  0  0  0  0  0  0  0  0
   -4.7423    0.5142  -19.3950 C   0  0  0  0  0  0  0  0  0  0  0  0
   -3.6100    1.3436  -19.6154 C   0  0  0  0  0  0  0  0  0  0  0  0
   -3.1863    1.6154  -20.8882 C   0  0  0  0  0  0  0  0  0  0  0  0
   -3.8629    1.0643  -21.9979 C   0  0  0  0  0  0  0  0  0  0  0  0
   -4.9576    0.2588  -21.8113 C   0  0  0  0  0  0  0  0  0  0  0  0
   -5.4427   -0.0137  -20.4990 C   0  0  0  0  0  0  0  0  0  0  0  0
   -5.4694   -0.1641  -22.6690 H   0  0  0  0  0  0  0  0  0  0  0  0
   -3.5191    1.2846  -23.0051 H   0  0  0  0  0  0  0  0  0  0  0  0
   -2.3279    2.2601  -21.0565 H   0  0  0  0  0  0  0  0  0  0  0  0
   -3.0961    1.7604  -18.7545 H   0  0  0  0  0  0  0  0  0  0  0  0
   -4.6500    0.6053  -17.2299 H   0  0  0  0  0  0  0  0  0  0  0  0
   -7.7663   -1.6891  -18.6488 H   0  0  0  0  0  0  0  0  0  0  0  0
   -7.6246   -2.7522  -21.3849 C   0  0  0  0  0  0  0  0  0  0  0  0
   -8.4425   -2.8757  -22.6584 C   0  0  0  0  0  0  0  0  0  0  0  0
   -8.0560   -3.9477  -23.6460 C   0  0  0  0  0  0  0  0  0  0  0  0
   -9.2958   -4.0915  -22.8175 C   0  0  0  0  0  0  0  0  0  0  0  0
   -9.2794   -4.8033  -21.9971 H   0  0  0  0  0  0  0  0  0  0  0  0
  -10.2601   -3.9739  -23.3012 H   0  0  0  0  0  0  0  0  0  0  0  0
   -8.1517   -3.7247  -24.7043 H   0  0  0  0  0  0  0  0  0  0  0  0
   -7.2039   -4.5801  -23.4029 H   0  0  0  0  0  0  0  0  0  0  0  0
   -8.1908   -3.1308  -20.5321 H   0  0  0  0  0  0  0  0  0  0  0  0
   -6.6787   -3.2998  -21.4395 H   0  0  0  0  0  0  0  0  0  0  0  0
  -10.4448   -1.2440  -22.9058 C   0  0  0  0  0  0  0  0  0  0  0  0
  -11.2028   -1.9861  -22.0014 C   0  0  0  0  0  0  0  0  0  0  0  0
  -12.5752   -1.8125  -21.9629 C   0  0  0  0  0  0  0  0  0  0  0  0
  -13.5078   -2.9594  -21.0460 Cl  0  0  0  0  0  0  0  0  0  0  0  0
  -13.2091   -0.7539  -22.6073 C   0  0  0  0  0  0  0  0  0  0  0  0
  -12.4439    0.0432  -23.4362 C   0  0  0  0  0  0  0  0  0  0  0  0
  -11.0989   -0.2456  -23.6429 C   0  0  0  0  0  0  0  0  0  0  0  0
  -10.3588    0.5946  -24.6320 C   0  0  0  0  0  0  0  0  0  0  0  0
  -10.8410    1.5961  -25.1488 O   0  0  0  0  0  0  0  0  0  0  0  0
  -12.8601    0.8954  -23.9561 H   0  0  0  0  0  0  0  0  0  0  0  0
  -14.2699   -0.5861  -22.4562 H   0  0  0  0  0  0  0  0  0  0  0  0
  -10.7418   -2.7307  -21.3642 H   0  0  0  0  0  0  0  0  0  0  0  0
   -9.0918   -1.8868  -25.1769 H   0  0  0  0  0  0  0  0  0  0  0  0
   -7.5380   -1.1787  -24.7070 H   0  0  0  0  0  0  0  0  0  0  0  0
   -8.6142    2.0721  -25.5642 H   0  0  0  0  0  0  0  0  0  0  0  0
   -7.2148    0.9912  -25.2454 H   0  0  0  0  0  0  0  0  0  0  0  0
   -9.7397    1.8359  -27.5912 H   0  0  0  0  0  0  0  0  0  0  0  0
   -9.6153    1.6937  -29.9307 H   0  0  0  0  0  0  0  0  0  0  0  0
   -9.1761    0.0083  -29.5567 H   0  0  0  0  0  0  0  0  0  0  0  0
   -7.9108    1.2164  -29.7981 H   0  0  0  0  0  0  0  0  0  0  0  0
  1  2  1  0
  2  3  1  0
  3  4  2  0
  3  5  1  0
  5  6  1  0
  6  7  1  0
  8  7  1  6
  8  9  1  0
  9 10  2  0
  9 11  1  0
 11 12  1  0
 12 13  2  0
 13 14  1  0
 14 15  2  0
 15 16  1  0
 16 17  2  0
 17 18  1  0
 18 19  2  0
 19 20  1  0
 20 21  2  0
 20 22  1  0
 19 23  1  0
 18 24  1  0
 17 25  1  0
 15 26  1  0
 13 27  1  0
 11 28  1  0
 28 29  1  0
 29 30  1  0
 30 31  1  0
 31 32  1  0
 31 33  1  0
 30 34  1  0
 30 35  1  0
 28 36  1  0
 28 37  1  0
  8 38  1  0
 38 39  2  0
 39 40  1  0
 40 41  1  0
 40 42  2  0
 42 43  1  0
 43 44  2  0
 44 45  1  0
 45 46  2  0
 43 47  1  0
 42 48  1  0
 39 49  1  0
  7 50  1  0
  7 51  1  0
  5 52  1  0
  5 53  1  0
  2 54  1  0
  1 55  1  0
  1 56  1  0
  1 57  1  0
 45  6  1  0
 29  8  1  0
 44 38  1  0
 21 12  1  0
 31 29  1  0
 21 16  1  0
M  END
>  <cnnaffinities>  (1) 
[5.95253, 6.27122]

>  <score>  (1) 
5.95253

>  <index>  (1) 
85

>  <Smiles>  (1) 
C(N(C(=O)C(N1C([C@@]2(C(=O)N(c3c(nc(c4c(c(c(c(c34)[H])[H])[H])[H])[H])[H])C(C32C(C3([H])[H])([H])[H])([H])[H])c2c(c(Cl)c(c(c2C1=O)[H])[H])[H])([H])[H])([H])[H])[H])([H])([H])[H]

>  <h>  (1) 
<NA>

>  <Training>  (1) 
True

>  <Success>  (1) 
True

>  <enamine_searched>  (1) 
False

>  <enamine_id>  (1) 
nan

$$$$
