
     RDKit          3D

 65 70  0  0  0  0  0  0  0  0999 V2000
   -8.8914    0.4704  -21.0853 O   0  0  0  0  0  0  0  0  0  0  0  0
   -8.3724   -0.3513  -21.8289 C   0  0  0  0  0  0  0  0  0  0  0  0
   -7.4165   -1.4142  -21.2528 C   0  0  0  0  0  0  0  0  0  0  0  0
   -6.5582   -0.8347  -20.1640 C   0  0  0  0  0  0  0  0  0  0  0  0
   -6.8733   -1.0443  -18.8450 C   0  0  0  0  0  0  0  0  0  0  0  0
   -6.1947   -0.5343  -17.7863 N   0  0  0  0  0  0  0  0  0  0  0  0
   -5.1556    0.2227  -18.0595 C   0  0  0  0  0  0  0  0  0  0  0  0
   -4.7230    0.5389  -19.3765 C   0  0  0  0  0  0  0  0  0  0  0  0
   -3.6035    1.3731  -19.6191 C   0  0  0  0  0  0  0  0  0  0  0  0
   -3.2162    1.6630  -20.9018 C   0  0  0  0  0  0  0  0  0  0  0  0
   -3.9306    1.1248  -21.9955 C   0  0  0  0  0  0  0  0  0  0  0  0
   -5.0170    0.3076  -21.7847 C   0  0  0  0  0  0  0  0  0  0  0  0
   -5.4426   -0.0019  -20.4661 C   0  0  0  0  0  0  0  0  0  0  0  0
   -5.5462   -0.1026  -22.6391 H   0  0  0  0  0  0  0  0  0  0  0  0
   -3.6140    1.3605  -23.0073 H   0  0  0  0  0  0  0  0  0  0  0  0
   -2.3630    2.3100  -21.0876 H   0  0  0  0  0  0  0  0  0  0  0  0
   -3.0630    1.7842  -18.7721 H   0  0  0  0  0  0  0  0  0  0  0  0
   -4.6005    0.6295  -17.2149 H   0  0  0  0  0  0  0  0  0  0  0  0
   -7.7319   -1.6630  -18.5835 H   0  0  0  0  0  0  0  0  0  0  0  0
   -8.0361   -2.2272  -20.8431 H   0  0  0  0  0  0  0  0  0  0  0  0
   -6.8067   -1.8481  -22.0568 H   0  0  0  0  0  0  0  0  0  0  0  0
   -8.6142   -0.3820  -23.2148 N   0  0  0  0  0  0  0  0  0  0  0  0
   -8.9218   -1.6662  -23.9572 C   0  0  0  0  0  0  0  0  0  0  0  0
  -10.5017   -1.9510  -24.0210 C   0  0  0  0  0  0  0  0  0  0  0  0
  -11.2541   -1.9989  -25.4229 C   0  0  0  0  0  0  0  0  0  0  0  0
  -11.2542   -1.9998  -25.4225 C   0  0  0  0  0  0  0  0  0  0  0  0
  -12.7808   -2.3519  -22.8833 C   0  0  0  0  0  0  0  0  0  0  0  0
  -12.6250   -2.3470  -23.1384 C   0  0  0  0  0  0  0  0  0  0  0  0
  -13.7481   -2.5437  -20.9883 Cl  0  0  0  0  0  0  0  0  0  0  0  0
  -11.2865   -2.1333  -22.8028 C   0  0  0  0  0  0  0  0  0  0  0  0
  -10.7610   -2.0265  -21.7378 H   0  0  0  0  0  0  0  0  0  0  0  0
  -13.6814   -2.3009  -23.7288 H   0  0  0  0  0  0  0  0  0  0  0  0
  -12.2927   -2.1618  -26.1228 H   0  0  0  0  0  0  0  0  0  0  0  0
  -10.4123   -2.4662  -26.2379 H   0  0  0  0  0  0  0  0  0  0  0  0
   -8.3464   -2.4681  -23.3761 H   0  0  0  0  0  0  0  0  0  0  0  0
   -8.3439   -1.5767  -24.9142 H   0  0  0  0  0  0  0  0  0  0  0  0
   -8.9397    0.9088  -23.8687 C   0  0  2  0  0  0  0  0  0  0  0  0
  -10.3086    1.5579  -23.5436 C   0  0  0  0  0  0  0  0  0  0  0  0
  -10.5215    2.5802  -24.6907 C   0  0  0  0  0  0  0  0  0  0  0  0
   -9.2431    2.4170  -25.5126 C   0  0  2  0  0  0  0  0  0  0  0  0
   -8.9971    0.8994  -25.4077 C   0  0  0  0  0  0  0  0  0  0  0  0
   -9.8434    0.2438  -25.7725 H   0  0  0  0  0  0  0  0  0  0  0  0
   -8.0343    0.6200  -25.8629 H   0  0  0  0  0  0  0  0  0  0  0  0
   -8.1102    3.0174  -24.6865 N   0  0  2  0  0  0  0  0  0  0  0  0
   -6.8985    3.3243  -25.4949 C   0  0  0  0  0  0  0  0  0  0  0  0
   -7.0565    4.6028  -26.3081 C   0  0  0  0  0  0  0  0  0  0  0  0
   -6.9142    5.9114  -25.5190 C   0  0  0  0  0  0  0  0  0  0  0  0
   -5.7048    6.2582  -26.2040 O   0  0  0  0  0  0  0  0  0  0  0  0
   -5.7722    5.0723  -27.0060 C   0  0  0  0  0  0  0  0  0  0  0  0
   -5.8711    5.2961  -28.0774 H   0  0  0  0  0  0  0  0  0  0  0  0
   -4.8992    4.4199  -26.8549 H   0  0  0  0  0  0  0  0  0  0  0  0
   -7.7131    6.6468  -25.6786 H   0  0  0  0  0  0  0  0  0  0  0  0
   -6.7520    5.7724  -24.4400 H   0  0  0  0  0  0  0  0  0  0  0  0
   -7.9353    4.5636  -26.9610 H   0  0  0  0  0  0  0  0  0  0  0  0
   -6.6696    2.4832  -26.1682 H   0  0  0  0  0  0  0  0  0  0  0  0
   -6.0314    3.4407  -24.8279 H   0  0  0  0  0  0  0  0  0  0  0  0
   -7.8661    1.9819  -23.6155 C   0  0  0  0  0  0  0  0  0  0  0  0
   -7.9376    2.4182  -22.6169 H   0  0  0  0  0  0  0  0  0  0  0  0
   -6.8686    1.5489  -23.7427 H   0  0  0  0  0  0  0  0  0  0  0  0
   -8.4047    3.9085  -24.2426 H   0  0  0  0  0  0  0  0  0  0  0  0
   -9.2710    2.8522  -26.5092 H   0  0  0  0  0  0  0  0  0  0  0  0
  -10.6669    3.6087  -24.3379 H   0  0  0  0  0  0  0  0  0  0  0  0
  -11.3893    2.3061  -25.3084 H   0  0  0  0  0  0  0  0  0  0  0  0
  -11.0722    0.7779  -23.5848 H   0  0  0  0  0  0  0  0  0  0  0  0
  -10.3242    2.0233  -22.5586 H   0  0  0  0  0  0  0  0  0  0  0  0
  1  2  2  0
  2  3  1  0
  3  4  1  0
  4  5  2  0
  5  6  1  0
  6  7  2  0
  7  8  1  0
  8  9  2  0
  9 10  1  0
 10 11  2  0
 11 12  1  0
 12 13  2  0
 12 14  1  0
 11 15  1  0
 10 16  1  0
  9 17  1  0
  7 18  1  0
  5 19  1  0
  3 20  1  0
  3 21  1  0
  2 22  1  0
 22 23  1  0
 23 24  1  0
 24 25  2  0
 25 26  1  0
 26 27  2  0
 27 28  1  0
 28 29  1  0
 28 30  2  0
 30 31  1  0
 27 32  1  0
 26 33  1  0
 25 34  1  0
 23 35  1  0
 23 36  1  0
 37 22  1  1
 37 38  1  0
 38 39  1  0
 39 40  1  0
 40 41  1  0
 41 42  1  0
 41 43  1  0
 40 44  1  0
 44 45  1  0
 45 46  1  0
 46 47  1  0
 47 48  1  0
 48 49  1  0
 49 50  1  0
 49 51  1  0
 47 52  1  0
 47 53  1  0
 46 54  1  0
 45 55  1  0
 45 56  1  0
 44 57  1  0
 57 58  1  0
 57 59  1  0
 44 60  1  1
 40 61  1  6
 39 62  1  0
 39 63  1  0
 38 64  1  0
 38 65  1  0
 13  4  1  0
 30 24  1  0
 41 37  1  0
 49 46  1  0
 13  8  1  0
 57 37  1  0
M  CHG  1  44   1
M  END
>  <cnnaffinities>  (1) 
[5.91284]

>  <score>  (1) 
5.91284

>  <index>  (1) 
68

>  <Smiles>  (1) 
O=C(C(c1c(nc(c2c(c(c(c(c12)[H])[H])[H])[H])[H])[H])([H])[H])N(C(c1c(c(c(c(Cl)c1[H])[H])[H])[H])([H])[H])[C@]12C(C([C@](C1([H])[H])([N@+](C(C1(C(OC1([H])[H])([H])[H])[H])([H])[H])(C2([H])[H])[H])[H])([H])[H])([H])[H]

>  <h>  (1) 
<NA>

>  <Training>  (1) 
True

>  <Success>  (1) 
True

>  <enamine_searched>  (1) 
False

>  <enamine_id>  (1) 
nan

$$$$
