
     RDKit          3D

 40 42  0  0  0  0  0  0  0  0999 V2000
   -8.4226    0.7625  -21.5748 O   0  0  0  0  0  0  0  0  0  0  0  0
   -8.5470   -0.4394  -21.7603 C   0  0  0  0  0  0  0  0  0  0  0  0
   -7.4825   -1.4216  -21.2634 C   0  0  0  0  0  0  0  0  0  0  0  0
   -6.6096   -0.8299  -20.1838 C   0  0  0  0  0  0  0  0  0  0  0  0
   -6.9074   -1.0486  -18.8650 C   0  0  0  0  0  0  0  0  0  0  0  0
   -6.2294   -0.5471  -17.7971 N   0  0  0  0  0  0  0  0  0  0  0  0
   -5.1882    0.2089  -18.0669 C   0  0  0  0  0  0  0  0  0  0  0  0
   -4.7533    0.5233  -19.3820 C   0  0  0  0  0  0  0  0  0  0  0  0
   -3.6233    1.3489  -19.6152 C   0  0  0  0  0  0  0  0  0  0  0  0
   -3.2287    1.6444  -20.8931 C   0  0  0  0  0  0  0  0  0  0  0  0
   -3.9508    1.1246  -21.9920 C   0  0  0  0  0  0  0  0  0  0  0  0
   -5.0515    0.3273  -21.7913 C   0  0  0  0  0  0  0  0  0  0  0  0
   -5.4838   -0.0002  -20.4777 C   0  0  0  0  0  0  0  0  0  0  0  0
   -5.6120   -0.0445  -22.6444 H   0  0  0  0  0  0  0  0  0  0  0  0
   -3.6312    1.3675  -23.0033 H   0  0  0  0  0  0  0  0  0  0  0  0
   -2.3705    2.2886  -21.0696 H   0  0  0  0  0  0  0  0  0  0  0  0
   -3.0886    1.7492  -18.7557 H   0  0  0  0  0  0  0  0  0  0  0  0
   -4.6291    0.6165  -17.2225 H   0  0  0  0  0  0  0  0  0  0  0  0
   -7.7543   -1.6811  -18.5942 H   0  0  0  0  0  0  0  0  0  0  0  0
   -6.8854   -1.7623  -22.1205 H   0  0  0  0  0  0  0  0  0  0  0  0
   -7.9912   -2.3090  -20.8666 H   0  0  0  0  0  0  0  0  0  0  0  0
   -9.6535   -0.9603  -22.3824 N   0  0  0  0  0  0  0  0  0  0  0  0
  -10.7449   -0.0422  -22.6740 C   0  0  0  0  0  0  0  0  0  0  0  0
  -12.0675   -0.7743  -22.5835 C   0  0  0  0  0  0  0  0  0  0  0  0
  -12.1973   -1.8545  -23.6611 C   0  0  0  0  0  0  0  0  0  0  0  0
  -13.1287   -2.9389  -23.1426 C   0  0  0  0  0  0  0  0  0  0  0  0
  -12.6641   -3.3779  -21.9304 F   0  0  0  0  0  0  0  0  0  0  0  0
  -14.3889   -2.4548  -22.9411 F   0  0  0  0  0  0  0  0  0  0  0  0
  -13.2076   -3.8168  -23.7955 H   0  0  0  0  0  0  0  0  0  0  0  0
  -10.8079   -2.4347  -23.9853 C   0  0  0  0  0  0  0  0  0  0  0  0
   -9.8427   -2.3494  -22.7976 C   0  0  0  0  0  0  0  0  0  0  0  0
   -8.8798   -2.7663  -23.0988 H   0  0  0  0  0  0  0  0  0  0  0  0
  -10.2234   -2.9509  -21.9657 H   0  0  0  0  0  0  0  0  0  0  0  0
  -10.9011   -3.4769  -24.3142 H   0  0  0  0  0  0  0  0  0  0  0  0
  -10.3657   -1.8793  -24.8190 H   0  0  0  0  0  0  0  0  0  0  0  0
  -12.6568   -1.4523  -24.5697 H   0  0  0  0  0  0  0  0  0  0  0  0
  -12.0722   -1.3192  -21.6511 H   0  0  0  0  0  0  0  0  0  0  0  0
  -12.9200   -0.0876  -22.5733 H   0  0  0  0  0  0  0  0  0  0  0  0
  -10.6797    0.7746  -21.9595 H   0  0  0  0  0  0  0  0  0  0  0  0
  -10.6143    0.3820  -23.6744 H   0  0  0  0  0  0  0  0  0  0  0  0
  1  2  2  0
  2  3  1  0
  3  4  1  0
  4  5  2  0
  5  6  1  0
  6  7  2  0
  7  8  1  0
  8  9  2  0
  9 10  1  0
 10 11  2  0
 11 12  1  0
 12 13  2  0
 12 14  1  0
 11 15  1  0
 10 16  1  0
  9 17  1  0
  7 18  1  0
  5 19  1  0
  3 20  1  0
  3 21  1  0
  2 22  1  0
 22 23  1  0
 23 24  1  0
 24 25  1  0
 25 26  1  0
 26 27  1  0
 26 28  1  0
 26 29  1  0
 25 30  1  0
 30 31  1  0
 31 32  1  0
 31 33  1  0
 30 34  1  0
 30 35  1  0
 25 36  1  0
 24 37  1  0
 24 38  1  0
 23 39  1  0
 23 40  1  0
 13  4  1  0
 31 22  1  0
 13  8  1  0
M  END
>  <cnnaffinities>  (1) 
[5.30478, 4.97616, 5.28951, 4.94195, 4.94171, 4.75794, 4.89236, 4.64202, 4.64209, 4.73759, 4.73752, 5.0529, 5.05288, 4.89622, 4.85821, 4.79053, 4.77622, 5.03655, 4.77499, 4.62663, 4.62842, 4.70368, 4.70375, 4.86875, 4.86789, 4.8615, 5.02235, 5.01192, 5.07863, 5.07863, 5.09543, 5.09484, 5.2644, 5.2644, 5.1299, 4.75047, 4.81087, 4.8107, 5.00593, 4.74934, 4.74929, 4.99476]

>  <score>  (1) 
5.30478

>  <index>  (1) 
88

>  <Smiles>  (1) 
O=C(C(c1c(nc(c2c(c(c(c(c12)[H])[H])[H])[H])[H])[H])([H])[H])N1C(C(C(C(F)(F)[H])(C(C1([H])[H])([H])[H])[H])([H])[H])([H])[H]

>  <h>  (1) 
<NA>

>  <Training>  (1) 
True

>  <Success>  (1) 
True

>  <enamine_searched>  (1) 
False

>  <enamine_id>  (1) 
nan

$$$$
