
     RDKit          3D

 63 68  0  0  0  0  0  0  0  0999 V2000
   -7.3854    3.3975  -21.8201 C   0  0  0  0  0  0  0  0  0  0  0  0
   -8.2493    2.9323  -22.8887 N   0  0  0  0  0  0  0  0  0  0  0  0
   -7.6758    2.2380  -23.8969 C   0  0  0  0  0  0  0  0  0  0  0  0
   -6.4591    2.1247  -24.0009 O   0  0  0  0  0  0  0  0  0  0  0  0
   -8.6185    1.6110  -24.9263 C   0  0  0  0  0  0  0  0  0  0  0  0
   -9.3417    0.4558  -24.4256 N   0  0  0  0  0  0  0  0  0  0  0  0
   -8.6293   -0.7986  -24.2557 C   0  0  0  0  0  0  0  0  0  0  0  0
   -9.0312   -1.5117  -22.9353 C   0  0  2  0  0  0  0  0  0  0  0  0
   -8.4890   -0.7171  -21.7162 C   0  0  0  0  0  0  0  0  0  0  0  0
   -8.9293    0.3168  -21.2571 O   0  0  0  0  0  0  0  0  0  0  0  0
   -7.3957   -1.3823  -21.2071 N   0  0  0  0  0  0  0  0  0  0  0  0
   -6.6027   -0.8106  -20.1749 C   0  0  0  0  0  0  0  0  0  0  0  0
   -6.9102   -1.0441  -18.8590 C   0  0  0  0  0  0  0  0  0  0  0  0
   -6.2123   -0.5501  -17.8050 N   0  0  0  0  0  0  0  0  0  0  0  0
   -5.1723    0.2060  -18.0734 C   0  0  0  0  0  0  0  0  0  0  0  0
   -4.7327    0.5299  -19.3898 C   0  0  0  0  0  0  0  0  0  0  0  0
   -3.6053    1.3637  -19.6361 C   0  0  0  0  0  0  0  0  0  0  0  0
   -3.2188    1.6529  -20.9164 C   0  0  0  0  0  0  0  0  0  0  0  0
   -3.9389    1.1239  -22.0109 C   0  0  0  0  0  0  0  0  0  0  0  0
   -5.0324    0.3181  -21.7989 C   0  0  0  0  0  0  0  0  0  0  0  0
   -5.4646    0.0030  -20.4815 C   0  0  0  0  0  0  0  0  0  0  0  0
   -5.5880   -0.0696  -22.6483 H   0  0  0  0  0  0  0  0  0  0  0  0
   -3.6452    1.3678  -23.0263 H   0  0  0  0  0  0  0  0  0  0  0  0
   -2.3656    2.3015  -21.0966 H   0  0  0  0  0  0  0  0  0  0  0  0
   -3.0718    1.7735  -18.7822 H   0  0  0  0  0  0  0  0  0  0  0  0
   -4.6221    0.6099  -17.2233 H   0  0  0  0  0  0  0  0  0  0  0  0
   -7.7624   -1.6709  -18.6070 H   0  0  0  0  0  0  0  0  0  0  0  0
   -7.0572   -2.6038  -21.9083 C   0  0  0  0  0  0  0  0  0  0  0  0
   -8.3040   -2.8830  -22.7700 C   0  0  2  0  0  0  0  0  0  0  0  0
   -7.9497   -3.6527  -24.0609 C   0  0  0  0  0  0  0  0  0  0  0  0
   -7.4474   -4.9925  -23.7864 N   0  0  0  0  0  0  0  0  0  0  0  0
   -8.1869   -6.0935  -23.5234 C   0  0  0  0  0  0  0  0  0  0  0  0
   -7.3088   -7.1125  -23.2324 C   0  0  0  0  0  0  0  0  0  0  0  0
   -6.0363   -6.5114  -23.3526 C   0  0  0  0  0  0  0  0  0  0  0  0
   -6.1326   -5.2282  -23.6824 N   0  0  0  0  0  0  0  0  0  0  0  0
   -5.0482   -6.9398  -23.2169 H   0  0  0  0  0  0  0  0  0  0  0  0
   -7.5505   -8.1365  -22.9785 H   0  0  0  0  0  0  0  0  0  0  0  0
   -9.2680   -6.0473  -23.5635 H   0  0  0  0  0  0  0  0  0  0  0  0
   -8.8366   -3.7687  -24.6959 H   0  0  0  0  0  0  0  0  0  0  0  0
   -7.1589   -3.1449  -24.6259 H   0  0  0  0  0  0  0  0  0  0  0  0
   -8.9840   -3.5233  -22.2030 H   0  0  0  0  0  0  0  0  0  0  0  0
   -6.1588   -2.4742  -22.5345 H   0  0  0  0  0  0  0  0  0  0  0  0
   -6.8438   -3.4105  -21.1983 H   0  0  0  0  0  0  0  0  0  0  0  0
  -10.5514   -1.5511  -22.8633 C   0  0  0  0  0  0  0  0  0  0  0  0
  -11.1948   -2.4197  -21.9714 C   0  0  0  0  0  0  0  0  0  0  0  0
  -12.5751   -2.4302  -21.8861 C   0  0  0  0  0  0  0  0  0  0  0  0
  -13.3666   -3.4975  -20.7630 Cl  0  0  0  0  0  0  0  0  0  0  0  0
  -13.3580   -1.5761  -22.6621 C   0  0  0  0  0  0  0  0  0  0  0  0
  -12.7302   -0.6616  -23.4842 C   0  0  0  0  0  0  0  0  0  0  0  0
  -11.3364   -0.6163  -23.5544 C   0  0  0  0  0  0  0  0  0  0  0  0
  -10.7000    0.5327  -24.2820 C   0  0  0  0  0  0  0  0  0  0  0  0
  -11.3521    1.4883  -24.6749 O   0  0  0  0  0  0  0  0  0  0  0  0
  -13.2951    0.0636  -24.0610 H   0  0  0  0  0  0  0  0  0  0  0  0
  -14.4381   -1.6125  -22.5757 H   0  0  0  0  0  0  0  0  0  0  0  0
  -10.6298   -3.0656  -21.3088 H   0  0  0  0  0  0  0  0  0  0  0  0
   -8.8320   -1.4723  -25.1049 H   0  0  0  0  0  0  0  0  0  0  0  0
   -7.5602   -0.5598  -24.2348 H   0  0  0  0  0  0  0  0  0  0  0  0
   -9.3899    2.3158  -25.2473 H   0  0  0  0  0  0  0  0  0  0  0  0
   -7.9844    1.3424  -25.7792 H   0  0  0  0  0  0  0  0  0  0  0  0
   -9.2470    2.8636  -22.7393 H   0  0  0  0  0  0  0  0  0  0  0  0
   -8.0075    3.8324  -21.0389 H   0  0  0  0  0  0  0  0  0  0  0  0
   -6.7855    2.5553  -21.4363 H   0  0  0  0  0  0  0  0  0  0  0  0
   -6.6941    4.1679  -22.1822 H   0  0  0  0  0  0  0  0  0  0  0  0
  1  2  1  0
  2  3  1  0
  3  4  2  0
  3  5  1  0
  5  6  1  0
  6  7  1  0
  8  7  1  6
  8  9  1  0
  9 10  2  0
  9 11  1  0
 11 12  1  0
 12 13  2  0
 13 14  1  0
 14 15  2  0
 15 16  1  0
 16 17  2  0
 17 18  1  0
 18 19  2  0
 19 20  1  0
 20 21  2  0
 20 22  1  0
 19 23  1  0
 18 24  1  0
 17 25  1  0
 15 26  1  0
 13 27  1  0
 11 28  1  0
 28 29  1  0
 29 30  1  0
 30 31  1  0
 31 32  1  0
 32 33  2  0
 33 34  1  0
 34 35  2  0
 34 36  1  0
 33 37  1  0
 32 38  1  0
 30 39  1  0
 30 40  1  0
 29 41  1  1
 28 42  1  0
 28 43  1  0
  8 44  1  0
 44 45  2  0
 45 46  1  0
 46 47  1  0
 46 48  2  0
 48 49  1  0
 49 50  2  0
 50 51  1  0
 51 52  2  0
 49 53  1  0
 48 54  1  0
 45 55  1  0
  7 56  1  0
  7 57  1  0
  5 58  1  0
  5 59  1  0
  2 60  1  0
  1 61  1  0
  1 62  1  0
  1 63  1  0
 51  6  1  0
 29  8  1  0
 35 31  1  0
 50 44  1  0
 21 12  1  0
 21 16  1  0
M  END
>  <cnnaffinities>  (1) 
[6.85968, 6.93482, 6.98162, 6.90806, 6.88936, 6.79147]

>  <score>  (1) 
6.85968

>  <index>  (1) 
15

>  <Smiles>  (1) 
C(N(C(=O)C(N1C([C@@]2(C(=O)N(c3c(nc(c4c(c(c(c(c34)[H])[H])[H])[H])[H])[H])C([C@@]2(C(n2c(c(c(n2)[H])[H])[H])([H])[H])[H])([H])[H])c2c(c(Cl)c(c(c2C1=O)[H])[H])[H])([H])[H])([H])[H])[H])([H])([H])[H]

>  <h>  (1) 
<NA>

>  <Training>  (1) 
True

>  <Success>  (1) 
True

>  <enamine_searched>  (1) 
False

>  <enamine_id>  (1) 
nan

$$$$
