
     RDKit          3D

 76 82  0  0  0  0  0  0  0  0999 V2000
   11.5328    2.8858   25.1814 O   0  0  0  0  0  0  0  0  0  0  0  0
   11.0584    2.0277   24.4564 C   0  0  0  0  0  0  0  0  0  0  0  0
   11.9086    1.0818   23.6506 C   0  0  0  0  0  0  0  0  0  0  0  0
   13.2830    1.3133   23.6307 C   0  0  0  0  0  0  0  0  0  0  0  0
   14.0984    0.6227   22.7534 C   0  0  0  0  0  0  0  0  0  0  0  0
   13.5162   -0.3236   21.9092 C   0  0  0  0  0  0  0  0  0  0  0  0
   14.5168   -1.1671   20.7556 Cl  0  0  0  0  0  0  0  0  0  0  0  0
   12.1586   -0.5867   21.9353 C   0  0  0  0  0  0  0  0  0  0  0  0
   11.3287    0.0932   22.8376 C   0  0  0  0  0  0  0  0  0  0  0  0
    9.8384   -0.1532   22.8094 C   0  0  1  0  0  0  0  0  0  0  0  0
    9.2114    0.5080   24.0592 C   0  0  0  0  0  0  0  0  0  0  0  0
    9.7137    1.8576   24.2426 N   0  0  0  0  0  0  0  0  0  0  0  0
    8.8162    2.9902   24.3666 C   0  0  0  0  0  0  0  0  0  0  0  0
    8.4780    3.6529   23.0198 C   0  0  0  0  0  0  0  0  0  0  0  0
    7.6206    4.8835   23.2200 N   0  0  0  0  0  4  0  0  0  0  0  0
    8.3787    6.1370   23.6167 C   0  0  0  0  0  0  0  0  0  0  0  0
    9.0540    6.7958   22.4189 C   0  0  0  0  0  0  0  0  0  0  0  0
    8.1159    7.1312   21.4169 O   0  0  0  0  0  0  0  0  0  0  0  0
    7.3973    6.0020   20.9622 C   0  0  0  0  0  0  0  0  0  0  0  0
    6.6857    5.2574   22.0906 C   0  0  0  0  0  0  0  0  0  0  0  0
    9.2135    0.4895   21.5517 C   0  0  0  0  0  0  0  0  0  0  0  0
    9.5944    1.4645   20.9332 O   0  0  0  0  0  0  0  0  0  0  0  0
    8.1005   -0.2477   21.2283 N   0  0  0  0  0  0  0  0  0  0  0  0
    7.2203    0.1798   20.2107 C   0  0  0  0  0  0  0  0  0  0  0  0
    7.5035   -0.1290   18.9058 C   0  0  0  0  0  0  0  0  0  0  0  0
    6.7389    0.2402   17.8483 N   0  0  0  0  0  0  0  0  0  0  0  0
    5.6643    0.9449   18.1160 C   0  0  0  0  0  0  0  0  0  0  0  0
    5.2638    1.3446   19.4247 C   0  0  0  0  0  0  0  0  0  0  0  0
    4.0940    2.1138   19.6527 C   0  0  0  0  0  0  0  0  0  0  0  0
    3.7270    2.4711   20.9199 C   0  0  0  0  0  0  0  0  0  0  0  0
    4.5093    2.0794   22.0270 C   0  0  0  0  0  0  0  0  0  0  0  0
    5.6536    1.3428   21.8322 C   0  0  0  0  0  0  0  0  0  0  0  0
    6.0601    0.9511   20.5239 C   0  0  0  0  0  0  0  0  0  0  0  0
    7.9823   -1.4951   21.9541 C   0  0  0  0  0  0  0  0  0  0  0  0
    9.3782   -1.6333   22.5895 C   0  0  2  0  0  0  0  0  0  0  0  0
    9.4419   -2.6152   23.7700 C   0  0  0  0  0  0  0  0  0  0  0  0
    9.2135   -3.9936   23.3748 N   0  0  0  0  0  0  0  0  0  0  0  0
    7.9954   -4.5906   23.3314 C   0  0  0  0  0  0  0  0  0  0  0  0
    6.9292   -3.9224   23.8009 N   0  0  0  0  0  0  0  0  0  0  0  0
    5.7582   -4.5561   23.7168 C   0  0  0  0  0  0  0  0  0  0  0  0
    5.6288   -5.8282   23.1797 C   0  0  0  0  0  0  0  0  0  0  0  0
    6.8062   -6.4233   22.7354 C   0  0  0  0  0  0  0  0  0  0  0  0
    7.9881   -5.8348   22.8055 N   0  0  0  0  0  0  0  0  0  0  0  0
   13.6799    2.0676   24.3021 H   0  0  0  0  0  0  0  0  0  0  0  0
   15.1643    0.8200   22.6947 H   0  0  0  0  0  0  0  0  0  0  0  0
   11.7611   -1.3097   21.2300 H   0  0  0  0  0  0  0  0  0  0  0  0
    8.1191    0.5404   23.9903 H   0  0  0  0  0  0  0  0  0  0  0  0
    9.4852   -0.0922   24.9360 H   0  0  0  0  0  0  0  0  0  0  0  0
    7.8956    2.6474   24.8523 H   0  0  0  0  0  0  0  0  0  0  0  0
    9.3102    3.6934   25.0412 H   0  0  0  0  0  0  0  0  0  0  0  0
    7.9250    2.9484   22.3935 H   0  0  0  0  0  0  0  0  0  0  0  0
    9.3891    3.9221   22.4851 H   0  0  0  0  0  0  0  0  0  0  0  0
    7.0067    4.6399   24.0113 H   0  0  0  0  0  0  0  0  0  0  0  0
    7.6508    6.8379   24.0353 H   0  0  0  0  0  0  0  0  0  0  0  0
    9.1135    5.8966   24.3872 H   0  0  0  0  0  0  0  0  0  0  0  0
    9.8521    6.1527   22.0133 H   0  0  0  0  0  0  0  0  0  0  0  0
    9.5119    7.7384   22.7281 H   0  0  0  0  0  0  0  0  0  0  0  0
    6.6594    6.3786   20.2469 H   0  0  0  0  0  0  0  0  0  0  0  0
    8.0631    5.3162   20.4182 H   0  0  0  0  0  0  0  0  0  0  0  0
    6.2208    4.3452   21.7029 H   0  0  0  0  0  0  0  0  0  0  0  0
    5.9087    5.8962   22.5238 H   0  0  0  0  0  0  0  0  0  0  0  0
    8.4002   -0.7038   18.6795 H   0  0  0  0  0  0  0  0  0  0  0  0
    5.0320    1.2312   17.2752 H   0  0  0  0  0  0  0  0  0  0  0  0
    3.5011    2.4077   18.7931 H   0  0  0  0  0  0  0  0  0  0  0  0
    2.8330    3.0633   21.0871 H   0  0  0  0  0  0  0  0  0  0  0  0
    4.2120    2.3756   23.0290 H   0  0  0  0  0  0  0  0  0  0  0  0
    6.2376    1.0458   22.6981 H   0  0  0  0  0  0  0  0  0  0  0  0
    7.7211   -2.3116   21.2734 H   0  0  0  0  0  0  0  0  0  0  0  0
    7.1929   -1.4325   22.7181 H   0  0  0  0  0  0  0  0  0  0  0  0
   10.0422   -2.0281   21.8146 H   0  0  0  0  0  0  0  0  0  0  0  0
    8.6659   -2.3621   24.4944 H   0  0  0  0  0  0  0  0  0  0  0  0
   10.4166   -2.5550   24.2727 H   0  0  0  0  0  0  0  0  0  0  0  0
    9.9679   -4.5525   23.0103 H   0  0  0  0  0  0  0  0  0  0  0  0
    4.8897   -4.0164   24.0988 H   0  0  0  0  0  0  0  0  0  0  0  0
    4.6797   -6.3414   23.1140 H   0  0  0  0  0  0  0  0  0  0  0  0
    6.8274   -7.4199   22.2958 H   0  0  0  0  0  0  0  0  0  0  0  0
  1  2  2  0
  2  3  1  0
  3  4  2  0
  4  5  1  0
  5  6  2  0
  6  7  1  0
  6  8  1  0
  8  9  2  0
  9 10  1  0
 10 11  1  1
 11 12  1  0
 12 13  1  0
 13 14  1  0
 14 15  1  0
 15 16  1  0
 16 17  1  0
 17 18  1  0
 18 19  1  0
 19 20  1  0
 10 21  1  0
 21 22  2  0
 21 23  1  0
 23 24  1  0
 24 25  2  0
 25 26  1  0
 26 27  2  0
 27 28  1  0
 28 29  2  0
 29 30  1  0
 30 31  2  0
 31 32  1  0
 32 33  2  0
 23 34  1  0
 34 35  1  0
 35 36  1  0
 36 37  1  0
 37 38  1  0
 38 39  2  0
 39 40  1  0
 40 41  2  0
 41 42  1  0
 42 43  2  0
 12  2  1  0
 20 15  1  0
 33 24  1  0
 43 38  1  0
  9  3  1  0
 35 10  1  0
 33 28  1  0
  4 44  1  0
  5 45  1  0
  8 46  1  0
 11 47  1  0
 11 48  1  0
 13 49  1  0
 13 50  1  0
 14 51  1  0
 14 52  1  0
 15 53  1  0
 16 54  1  0
 16 55  1  0
 17 56  1  0
 17 57  1  0
 19 58  1  0
 19 59  1  0
 20 60  1  0
 20 61  1  0
 25 62  1  0
 27 63  1  0
 29 64  1  0
 30 65  1  0
 31 66  1  0
 32 67  1  0
 34 68  1  0
 34 69  1  0
 35 70  1  6
 36 71  1  0
 36 72  1  0
 37 73  1  0
 40 74  1  0
 41 75  1  0
 42 76  1  0
M  CHG  1  15   1
M  END
$$$$
