
     RDKit          3D

 65 69  0  0  0  0  0  0  0  0999 V2000
    5.8285   -4.1139   24.4900 C   0  0  0  0  0  0  0  0  0  0  0  0
    5.7336   -4.4149   25.9860 C   0  0  0  0  0  0  0  0  0  0  0  0
    6.9976   -4.0903   26.7415 C   0  0  0  0  0  0  0  0  0  0  0  0
    7.5631   -4.8431   27.4998 O   0  0  0  0  0  0  0  0  0  0  0  0
    7.5631   -2.7191   26.6042 N   0  0  2  0  0  4  0  0  0  0  0  0
    6.6016   -1.5826   26.9802 C   0  0  0  0  0  0  0  0  0  0  0  0
    7.2603   -0.2537   26.6862 C   0  0  0  0  0  0  0  0  0  0  0  0
    7.5633   -0.1432   25.1951 C   0  0  0  0  0  0  0  0  0  0  0  0
    8.4443   -1.2640   24.6970 C   0  0  0  0  0  0  0  0  0  0  0  0
    9.2076   -1.1391   23.5125 C   0  0  0  0  0  0  0  0  0  0  0  0
    9.3544    0.1381   22.8756 N   0  0  0  0  0  0  0  0  0  0  0  0
   10.1767    1.1469   23.5460 C   0  0  0  0  0  0  0  0  0  0  0  0
   11.6232    1.2162   23.0707 C   0  0  0  0  0  0  0  0  0  0  0  0
   12.3614    2.3903   23.2266 C   0  0  0  0  0  0  0  0  0  0  0  0
   13.6777    2.4583   22.7774 C   0  0  0  0  0  0  0  0  0  0  0  0
   14.2804    1.3672   22.1636 C   0  0  0  0  0  0  0  0  0  0  0  0
   13.5532    0.1918   22.0551 C   0  0  0  0  0  0  0  0  0  0  0  0
   14.2751   -1.2074   21.3146 Cl  0  0  0  0  0  0  0  0  0  0  0  0
   12.2515    0.0997   22.5255 C   0  0  0  0  0  0  0  0  0  0  0  0
    8.8639    0.4371   21.6141 C   0  0  0  0  0  0  0  0  0  0  0  0
    9.1231    1.4828   21.0558 O   0  0  0  0  0  0  0  0  0  0  0  0
    7.9469   -0.6102   20.9510 C   0  0  0  0  0  0  0  0  0  0  0  0
    7.0205   -0.0206   19.9172 C   0  0  0  0  0  0  0  0  0  0  0  0
    7.2269   -0.2010   18.5734 C   0  0  0  0  0  0  0  0  0  0  0  0
    6.4998    0.3513   17.5643 N   0  0  0  0  0  0  0  0  0  0  0  0
    5.5002    1.1251   17.9197 C   0  0  0  0  0  0  0  0  0  0  0  0
    5.1463    1.3882   19.2718 C   0  0  0  0  0  0  0  0  0  0  0  0
    4.0546    2.2336   19.5998 C   0  0  0  0  0  0  0  0  0  0  0  0
    3.7355    2.4848   20.9042 C   0  0  0  0  0  0  0  0  0  0  0  0
    4.4917    1.8993   21.9451 C   0  0  0  0  0  0  0  0  0  0  0  0
    5.5534    1.0756   21.6541 C   0  0  0  0  0  0  0  0  0  0  0  0
    5.9194    0.8002   20.3049 C   0  0  0  0  0  0  0  0  0  0  0  0
    9.8245   -2.2579   22.9628 C   0  0  0  0  0  0  0  0  0  0  0  0
    9.8340   -3.4574   23.6644 C   0  0  0  0  0  0  0  0  0  0  0  0
    9.1764   -3.5672   24.8817 C   0  0  0  0  0  0  0  0  0  0  0  0
    8.4287   -2.4910   25.3539 C   0  0  0  0  0  0  0  0  0  0  0  0
    6.6811   -4.6332   24.0361 H   0  0  0  0  0  0  0  0  0  0  0  0
    5.9812   -3.0421   24.3375 H   0  0  0  0  0  0  0  0  0  0  0  0
    4.9141   -4.4105   23.9703 H   0  0  0  0  0  0  0  0  0  0  0  0
    4.9372   -3.8219   26.4514 H   0  0  0  0  0  0  0  0  0  0  0  0
    5.5096   -5.4644   26.1904 H   0  0  0  0  0  0  0  0  0  0  0  0
    8.2589   -2.7837   27.3919 H   0  0  0  0  0  0  0  0  0  0  0  0
    6.3249   -1.6621   28.0354 H   0  0  0  0  0  0  0  0  0  0  0  0
    5.6849   -1.6745   26.3936 H   0  0  0  0  0  0  0  0  0  0  0  0
    6.5856    0.5568   26.9893 H   0  0  0  0  0  0  0  0  0  0  0  0
    8.1746   -0.1498   27.2842 H   0  0  0  0  0  0  0  0  0  0  0  0
    6.6142   -0.1972   24.6365 H   0  0  0  0  0  0  0  0  0  0  0  0
    8.0042    0.8271   24.9530 H   0  0  0  0  0  0  0  0  0  0  0  0
    9.7150    2.1349   23.4306 H   0  0  0  0  0  0  0  0  0  0  0  0
   10.1620    0.9032   24.6153 H   0  0  0  0  0  0  0  0  0  0  0  0
   11.9156    3.2557   23.7155 H   0  0  0  0  0  0  0  0  0  0  0  0
   14.2454    3.3740   22.9083 H   0  0  0  0  0  0  0  0  0  0  0  0
   15.2979    1.4175   21.7899 H   0  0  0  0  0  0  0  0  0  0  0  0
   11.7545   -0.8615   22.4873 H   0  0  0  0  0  0  0  0  0  0  0  0
    7.3943   -1.1242   21.7451 H   0  0  0  0  0  0  0  0  0  0  0  0
    8.5927   -1.3627   20.4783 H   0  0  0  0  0  0  0  0  0  0  0  0
    8.0350   -0.8452   18.2252 H   0  0  0  0  0  0  0  0  0  0  0  0
    4.9052    1.5866   17.1239 H   0  0  0  0  0  0  0  0  0  0  0  0
    3.4919    2.6805   18.7853 H   0  0  0  0  0  0  0  0  0  0  0  0
    2.9032    3.1375   21.1479 H   0  0  0  0  0  0  0  0  0  0  0  0
    4.2285    2.1167   22.9803 H   0  0  0  0  0  0  0  0  0  0  0  0
    6.1252    0.6484   22.4774 H   0  0  0  0  0  0  0  0  0  0  0  0
   10.3302   -2.1995   22.0005 H   0  0  0  0  0  0  0  0  0  0  0  0
   10.3683   -4.3078   23.2616 H   0  0  0  0  0  0  0  0  0  0  0  0
    9.2336   -4.4989   25.4329 H   0  0  0  0  0  0  0  0  0  0  0  0
  1  2  1  0
  2  3  1  0
  3  4  2  0
  3  5  1  0
  5  6  1  0
  6  7  1  0
  7  8  1  0
  8  9  1  0
  9 10  2  0
 10 11  1  0
 11 12  1  0
 12 13  1  0
 13 14  2  0
 14 15  1  0
 15 16  2  0
 16 17  1  0
 17 18  1  0
 17 19  2  0
 11 20  1  0
 20 21  2  0
 20 22  1  0
 22 23  1  0
 23 24  2  0
 24 25  1  0
 25 26  2  0
 26 27  1  0
 27 28  2  0
 28 29  1  0
 29 30  2  0
 30 31  1  0
 31 32  2  0
 10 33  1  0
 33 34  2  0
 34 35  1  0
 35 36  2  0
 36  5  1  0
 36  9  1  0
 19 13  1  0
 32 23  1  0
 32 27  1  0
  1 37  1  0
  1 38  1  0
  1 39  1  0
  2 40  1  0
  2 41  1  0
  5 42  1  1
  6 43  1  0
  6 44  1  0
  7 45  1  0
  7 46  1  0
  8 47  1  0
  8 48  1  0
 12 49  1  0
 12 50  1  0
 14 51  1  0
 15 52  1  0
 16 53  1  0
 19 54  1  0
 22 55  1  0
 22 56  1  0
 24 57  1  0
 26 58  1  0
 28 59  1  0
 29 60  1  0
 30 61  1  0
 31 62  1  0
 33 63  1  0
 34 64  1  0
 35 65  1  0
M  CHG  1   5   1
M  END
$$$$
