
     RDKit          3D

 36 38  0  0  0  0  0  0  0  0999 V2000
   10.2925    1.1811   20.8050 O   0  0  0  0  0  0  0  0  0  0  0  0
    9.4032    0.4304   21.1615 C   0  0  0  0  0  0  0  0  0  0  0  0
    7.9996    0.9554   21.3665 C   0  0  0  0  0  0  0  0  0  0  0  0
    7.0187    0.6696   20.2469 C   0  0  0  0  0  0  0  0  0  0  0  0
    7.3963    0.2579   18.9927 C   0  0  0  0  0  0  0  0  0  0  0  0
    6.6101    0.2715   17.8810 N   0  0  0  0  0  0  0  0  0  0  0  0
    5.3970    0.7401   18.0239 C   0  0  0  0  0  0  0  0  0  0  0  0
    4.8563    1.1742   19.2683 C   0  0  0  0  0  0  0  0  0  0  0  0
    3.5869    1.7948   19.3741 C   0  0  0  0  0  0  0  0  0  0  0  0
    3.0521    2.0574   20.6056 C   0  0  0  0  0  0  0  0  0  0  0  0
    3.7578    1.7089   21.7808 C   0  0  0  0  0  0  0  0  0  0  0  0
    5.0285    1.1903   21.6999 C   0  0  0  0  0  0  0  0  0  0  0  0
    5.6378    0.9940   20.4325 C   0  0  0  0  0  0  0  0  0  0  0  0
    9.5989   -0.9147   21.3718 N   0  0  0  0  0  0  0  0  0  0  0  0
   10.9760   -1.3844   21.4351 C   0  0  0  0  0  0  0  0  0  0  0  0
   11.6420   -1.1489   22.7677 C   0  0  0  0  0  0  0  0  0  0  0  0
   11.0578   -1.3410   23.9515 C   0  0  0  0  0  0  0  0  0  0  0  0
    9.7716   -2.0333   24.1719 C   0  0  0  0  0  0  0  0  0  0  0  0
    8.8086   -2.3164   23.2892 C   0  0  0  0  0  0  0  0  0  0  0  0
    8.5832   -1.8164   21.8864 C   0  0  0  0  0  0  0  0  0  0  0  0
    7.6312    0.5991   22.3336 H   0  0  0  0  0  0  0  0  0  0  0  0
    8.1212    2.0378   21.4728 H   0  0  0  0  0  0  0  0  0  0  0  0
    8.4010   -0.0960   18.8013 H   0  0  0  0  0  0  0  0  0  0  0  0
    4.7739    0.7690   17.1298 H   0  0  0  0  0  0  0  0  0  0  0  0
    3.0648    2.0556   18.4566 H   0  0  0  0  0  0  0  0  0  0  0  0
    2.0775    2.5300   20.6947 H   0  0  0  0  0  0  0  0  0  0  0  0
    3.2990    1.8694   22.7532 H   0  0  0  0  0  0  0  0  0  0  0  0
    5.5674    0.9595   22.6168 H   0  0  0  0  0  0  0  0  0  0  0  0
   10.9504   -2.4567   21.2019 H   0  0  0  0  0  0  0  0  0  0  0  0
   11.5570   -0.8695   20.6644 H   0  0  0  0  0  0  0  0  0  0  0  0
   12.6922   -0.8686   22.7436 H   0  0  0  0  0  0  0  0  0  0  0  0
   11.5768   -1.0234   24.8528 H   0  0  0  0  0  0  0  0  0  0  0  0
    9.6210   -2.3956   25.1883 H   0  0  0  0  0  0  0  0  0  0  0  0
    8.0262   -3.0176   23.5857 H   0  0  0  0  0  0  0  0  0  0  0  0
    7.6198   -1.3053   21.8385 H   0  0  0  0  0  0  0  0  0  0  0  0
    8.4743   -2.6837   21.2152 H   0  0  0  0  0  0  0  0  0  0  0  0
  1  2  2  0
  2  3  1  0
  3  4  1  0
  4  5  2  0
  5  6  1  0
  6  7  2  0
  7  8  1  0
  8  9  2  0
  9 10  1  0
 10 11  2  0
 11 12  1  0
 12 13  2  0
  2 14  1  0
 14 15  1  0
 15 16  1  0
 16 17  2  0
 17 18  1  0
 18 19  2  0
 19 20  1  0
 13  4  1  0
 20 14  1  0
 13  8  1  0
  3 21  1  0
  3 22  1  0
  5 23  1  0
  7 24  1  0
  9 25  1  0
 10 26  1  0
 11 27  1  0
 12 28  1  0
 15 29  1  0
 15 30  1  0
 16 31  1  0
 17 32  1  0
 18 33  1  0
 19 34  1  0
 20 35  1  0
 20 36  1  0
M  END
$$$$
