
     RDKit          3D

 47 50  0  0  0  0  0  0  0  0999 V2000
    9.3622    1.1956   21.3375 O   0  0  0  0  0  0  0  0  0  0  0  0
    8.9077    0.1692   21.8047 C   0  0  0  0  0  0  0  0  0  0  0  0
    7.7343   -0.6108   21.1978 C   0  0  0  0  0  0  0  0  0  0  0  0
    6.9498    0.0863   20.1246 C   0  0  0  0  0  0  0  0  0  0  0  0
    7.3418   -0.0152   18.8161 C   0  0  0  0  0  0  0  0  0  0  0  0
    6.6734    0.4929   17.7470 N   0  0  0  0  0  0  0  0  0  0  0  0
    5.5478    1.1200   18.0023 C   0  0  0  0  0  0  0  0  0  0  0  0
    5.0090    1.3003   19.3057 C   0  0  0  0  0  0  0  0  0  0  0  0
    3.7732    1.9648   19.5259 C   0  0  0  0  0  0  0  0  0  0  0  0
    3.3091    2.1667   20.7991 C   0  0  0  0  0  0  0  0  0  0  0  0
    4.0551    1.7087   21.9087 C   0  0  0  0  0  0  0  0  0  0  0  0
    5.2466    1.0503   21.7167 C   0  0  0  0  0  0  0  0  0  0  0  0
    5.7516    0.8125   20.4086 C   0  0  0  0  0  0  0  0  0  0  0  0
    9.4127   -0.3964   22.9688 N   0  0  0  0  0  0  0  0  0  0  0  0
    9.1334   -1.7349   23.3083 C   0  0  0  0  0  0  0  0  0  0  0  0
    8.2154   -2.1030   24.2140 C   0  0  0  0  0  0  0  0  0  0  0  0
    7.5083   -1.1938   25.1154 C   0  0  0  0  0  0  0  0  0  0  0  0
    8.0797   -0.2604   25.8919 C   0  0  0  0  0  0  0  0  0  0  0  0
    9.5253   -0.1315   26.1326 C   0  0  0  0  0  0  0  0  0  0  0  0
   10.4854   -0.0330   25.2071 C   0  0  0  0  0  0  0  0  0  0  0  0
   10.3267    0.4489   23.7729 C   0  0  1  0  0  0  0  0  0  0  0  0
   11.7120    0.5674   23.1503 C   0  0  0  0  0  0  0  0  0  0  0  0
   12.3982   -0.5884   22.7918 C   0  0  0  0  0  0  0  0  0  0  0  0
   13.7679   -0.5480   22.5836 C   0  0  0  0  0  0  0  0  0  0  0  0
   14.4616    0.6502   22.7109 C   0  0  0  0  0  0  0  0  0  0  0  0
   13.7653    1.8232   22.9902 C   0  0  0  0  0  0  0  0  0  0  0  0
   12.3889    1.7885   23.1655 C   0  0  0  0  0  0  0  0  0  0  0  0
    7.0925   -0.9055   22.0348 H   0  0  0  0  0  0  0  0  0  0  0  0
    8.1612   -1.5384   20.7953 H   0  0  0  0  0  0  0  0  0  0  0  0
    8.2529   -0.5609   18.5675 H   0  0  0  0  0  0  0  0  0  0  0  0
    5.0109    1.5418   17.1518 H   0  0  0  0  0  0  0  0  0  0  0  0
    3.2068    2.3091   18.6620 H   0  0  0  0  0  0  0  0  0  0  0  0
    2.3717    2.6918   20.9726 H   0  0  0  0  0  0  0  0  0  0  0  0
    3.6806    1.8785   22.9185 H   0  0  0  0  0  0  0  0  0  0  0  0
    5.8106    0.7052   22.5781 H   0  0  0  0  0  0  0  0  0  0  0  0
    9.6396   -2.4876   22.6981 H   0  0  0  0  0  0  0  0  0  0  0  0
    7.9371   -3.1532   24.2593 H   0  0  0  0  0  0  0  0  0  0  0  0
    6.4288   -1.3405   25.1901 H   0  0  0  0  0  0  0  0  0  0  0  0
    7.4481    0.3834   26.5015 H   0  0  0  0  0  0  0  0  0  0  0  0
    9.8200   -0.1086   27.1847 H   0  0  0  0  0  0  0  0  0  0  0  0
   11.5202   -0.1900   25.5108 H   0  0  0  0  0  0  0  0  0  0  0  0
    9.8589    1.4400   23.7952 H   0  0  0  0  0  0  0  0  0  0  0  0
   11.8511   -1.5289   22.7405 H   0  0  0  0  0  0  0  0  0  0  0  0
   14.3109   -1.4629   22.3843 H   0  0  0  0  0  0  0  0  0  0  0  0
   15.5357    0.6762   22.5510 H   0  0  0  0  0  0  0  0  0  0  0  0
   14.2816    2.7775   23.0651 H   0  0  0  0  0  0  0  0  0  0  0  0
   11.8582    2.7213   23.3455 H   0  0  0  0  0  0  0  0  0  0  0  0
  1  2  2  0
  2  3  1  0
  3  4  1  0
  4  5  2  0
  5  6  1  0
  6  7  2  0
  7  8  1  0
  8  9  2  0
  9 10  1  0
 10 11  2  0
 11 12  1  0
 12 13  2  0
  2 14  1  0
 14 15  1  0
 15 16  2  3
 16 17  1  0
 17 18  2  3
 18 19  1  0
 19 20  2  3
 20 21  1  0
 21 22  1  0
 22 23  2  0
 23 24  1  0
 24 25  2  0
 25 26  1  0
 26 27  2  0
 13  4  1  0
 21 14  1  0
 27 22  1  0
 13  8  1  0
  3 28  1  0
  3 29  1  0
  5 30  1  0
  7 31  1  0
  9 32  1  0
 10 33  1  0
 11 34  1  0
 12 35  1  0
 15 36  1  0
 16 37  1  0
 17 38  1  0
 18 39  1  0
 19 40  1  0
 20 41  1  0
 21 42  1  1
 23 43  1  0
 24 44  1  0
 25 45  1  0
 26 46  1  0
 27 47  1  0
M  END
$$$$
