
     RDKit          3D

 64 70  0  0  0  0  0  0  0  0999 V2000
   11.6091    2.7942   25.2668 O   0  0  0  0  0  0  0  0  0  0  0  0
   11.1191    1.9262   24.5593 C   0  0  0  0  0  0  0  0  0  0  0  0
   11.9437    1.0324   23.6858 C   0  0  0  0  0  0  0  0  0  0  0  0
   13.3130    1.2911   23.6344 C   0  0  0  0  0  0  0  0  0  0  0  0
   14.1191    0.6191   22.7365 C   0  0  0  0  0  0  0  0  0  0  0  0
   13.5289   -0.3224   21.8928 C   0  0  0  0  0  0  0  0  0  0  0  0
   14.5259   -1.1713   20.7417 Cl  0  0  0  0  0  0  0  0  0  0  0  0
   12.1721   -0.5868   21.9287 C   0  0  0  0  0  0  0  0  0  0  0  0
   11.3497    0.0715   22.8515 C   0  0  0  0  0  0  0  0  0  0  0  0
    9.8567   -0.1654   22.8219 C   0  0  1  0  0  0  0  0  0  0  0  0
    9.2569    0.4111   24.1226 C   0  0  0  0  0  0  0  0  0  0  0  0
    9.7704    1.7321   24.4275 N   0  0  0  0  0  0  0  0  0  0  0  0
    8.8787    2.8613   24.6365 C   0  0  0  0  0  0  0  0  0  0  0  0
    9.0085    3.9929   23.6256 C   0  0  0  0  0  0  0  0  0  0  0  0
    8.2231    4.1070   22.4925 C   0  0  0  0  0  0  0  0  0  0  0  0
    8.3641    5.2544   21.7116 C   0  0  0  0  0  0  0  0  0  0  0  0
    9.2193    6.2317   22.0026 N   0  0  0  0  0  0  0  0  0  0  0  0
   10.0142    6.1059   23.0556 N   0  0  0  0  0  0  0  0  0  0  0  0
    9.9276    5.0294   23.8318 C   0  0  0  0  0  0  0  0  0  0  0  0
    9.2092    0.4907   21.5763 C   0  0  0  0  0  0  0  0  0  0  0  0
    9.5816    1.4611   20.9582 O   0  0  0  0  0  0  0  0  0  0  0  0
    8.0922   -0.2537   21.2563 N   0  0  0  0  0  0  0  0  0  0  0  0
    7.2223    0.1710   20.2267 C   0  0  0  0  0  0  0  0  0  0  0  0
    7.5070   -0.1358   18.9201 C   0  0  0  0  0  0  0  0  0  0  0  0
    6.7429    0.2347   17.8613 N   0  0  0  0  0  0  0  0  0  0  0  0
    5.6669    0.9391   18.1237 C   0  0  0  0  0  0  0  0  0  0  0  0
    5.2651    1.3358   19.4326 C   0  0  0  0  0  0  0  0  0  0  0  0
    4.0946    2.1049   19.6559 C   0  0  0  0  0  0  0  0  0  0  0  0
    3.7268    2.4661   20.9226 C   0  0  0  0  0  0  0  0  0  0  0  0
    4.5123    2.0778   22.0290 C   0  0  0  0  0  0  0  0  0  0  0  0
    5.6551    1.3369   21.8407 C   0  0  0  0  0  0  0  0  0  0  0  0
    6.0602    0.9450   20.5320 C   0  0  0  0  0  0  0  0  0  0  0  0
    7.9955   -1.5135   21.9643 C   0  0  0  0  0  0  0  0  0  0  0  0
    9.3972   -1.6359   22.5836 C   0  0  2  0  0  0  0  0  0  0  0  0
    9.4604   -2.6015   23.7722 C   0  0  0  0  0  0  0  0  0  0  0  0
    9.2513   -3.9832   23.3822 N   0  0  0  0  0  0  0  0  0  0  0  0
    8.0249   -4.5579   23.3596 C   0  0  0  0  0  0  0  0  0  0  0  0
    6.9354   -3.9849   23.8026 N   0  0  0  0  0  0  0  0  0  0  0  0
    5.8329   -4.7837   23.6710 N   0  0  0  0  0  0  0  0  0  0  0  0
    6.0980   -5.9261   23.1381 C   0  0  0  0  0  0  0  0  0  0  0  0
    7.7648   -6.1632   22.7295 S   0  0  0  0  0  0  0  0  0  0  0  0
   13.7035    2.0553   24.3001 H   0  0  0  0  0  0  0  0  0  0  0  0
   15.1827    0.8233   22.6669 H   0  0  0  0  0  0  0  0  0  0  0  0
   11.7676   -1.3059   21.2256 H   0  0  0  0  0  0  0  0  0  0  0  0
    9.4902   -0.2765   24.9435 H   0  0  0  0  0  0  0  0  0  0  0  0
    8.1674    0.4640   24.0420 H   0  0  0  0  0  0  0  0  0  0  0  0
    7.8667    2.4530   24.6073 H   0  0  0  0  0  0  0  0  0  0  0  0
    9.0635    3.2389   25.6458 H   0  0  0  0  0  0  0  0  0  0  0  0
    7.4837    3.3551   22.2251 H   0  0  0  0  0  0  0  0  0  0  0  0
    7.7813    5.3981   20.8001 H   0  0  0  0  0  0  0  0  0  0  0  0
   10.6525    4.9773   24.6429 H   0  0  0  0  0  0  0  0  0  0  0  0
    8.4018   -0.7090   18.6847 H   0  0  0  0  0  0  0  0  0  0  0  0
    5.0391    1.2266   17.2795 H   0  0  0  0  0  0  0  0  0  0  0  0
    3.5058    2.3978   18.7920 H   0  0  0  0  0  0  0  0  0  0  0  0
    2.8331    3.0615   21.0876 H   0  0  0  0  0  0  0  0  0  0  0  0
    4.2124    2.3679   23.0318 H   0  0  0  0  0  0  0  0  0  0  0  0
    6.2517    1.0452   22.7012 H   0  0  0  0  0  0  0  0  0  0  0  0
    7.2188   -1.4865   22.7427 H   0  0  0  0  0  0  0  0  0  0  0  0
    7.7420   -2.3358   21.2875 H   0  0  0  0  0  0  0  0  0  0  0  0
   10.0630   -2.0277   21.8103 H   0  0  0  0  0  0  0  0  0  0  0  0
    8.6844   -2.3531   24.4992 H   0  0  0  0  0  0  0  0  0  0  0  0
   10.4329   -2.5215   24.2746 H   0  0  0  0  0  0  0  0  0  0  0  0
   10.0369   -4.4804   23.0010 H   0  0  0  0  0  0  0  0  0  0  0  0
    5.3576   -6.6945   22.9519 H   0  0  0  0  0  0  0  0  0  0  0  0
  1  2  2  0
  2  3  1  0
  3  4  2  0
  4  5  1  0
  5  6  2  0
  6  7  1  0
  6  8  1  0
  8  9  2  0
  9 10  1  0
 10 11  1  1
 11 12  1  0
 12 13  1  0
 13 14  1  0
 14 15  2  0
 15 16  1  0
 16 17  2  0
 17 18  1  0
 18 19  2  0
 10 20  1  0
 20 21  2  0
 20 22  1  0
 22 23  1  0
 23 24  2  0
 24 25  1  0
 25 26  2  0
 26 27  1  0
 27 28  2  0
 28 29  1  0
 29 30  2  0
 30 31  1  0
 31 32  2  0
 22 33  1  0
 33 34  1  0
 34 35  1  0
 35 36  1  0
 36 37  1  0
 37 38  2  0
 38 39  1  0
 39 40  2  0
 40 41  1  0
 12  2  1  0
 19 14  1  0
 32 23  1  0
 41 37  1  0
  9  3  1  0
 34 10  1  0
 32 27  1  0
  4 42  1  0
  5 43  1  0
  8 44  1  0
 11 45  1  0
 11 46  1  0
 13 47  1  0
 13 48  1  0
 15 49  1  0
 16 50  1  0
 19 51  1  0
 24 52  1  0
 26 53  1  0
 28 54  1  0
 29 55  1  0
 30 56  1  0
 31 57  1  0
 33 58  1  0
 33 59  1  0
 34 60  1  6
 35 61  1  0
 35 62  1  0
 36 63  1  0
 40 64  1  0
M  END
$$$$
