
     RDKit          3D

 70 75  0  0  0  0  0  0  0  0999 V2000
    6.4962    3.4772   25.7697 O   0  0  0  0  0  0  0  0  0  0  0  0
    6.9090    2.7027   24.9281 C   0  0  0  0  0  0  0  0  0  0  0  0
    7.7575    1.4985   25.3469 C   0  0  0  0  0  0  0  0  0  0  0  0
    8.7106    0.9465   24.3518 N   0  0  1  0  0  4  0  0  0  0  0  0
   10.1474    1.2067   24.7015 C   0  0  0  0  0  0  0  0  0  0  0  0
   11.0949    0.5342   23.7316 C   0  0  0  0  0  0  0  0  0  0  0  0
   12.4404    0.8949   23.7667 C   0  0  0  0  0  0  0  0  0  0  0  0
   13.3905    0.2102   23.0217 C   0  0  0  0  0  0  0  0  0  0  0  0
   12.9707   -0.8561   22.2325 C   0  0  0  0  0  0  0  0  0  0  0  0
   14.1558   -1.7615   21.3304 Cl  0  0  0  0  0  0  0  0  0  0  0  0
   11.6291   -1.2098   22.1533 C   0  0  0  0  0  0  0  0  0  0  0  0
   10.6763   -0.5008   22.8899 C   0  0  0  0  0  0  0  0  0  0  0  0
    9.2033   -0.8506   22.7945 C   0  0  2  0  0  0  0  0  0  0  0  0
    8.4257   -0.0286   21.7572 C   0  0  0  0  0  0  0  0  0  0  0  0
    8.5218    1.1939   21.6793 O   0  0  0  0  0  0  0  0  0  0  0  0
    7.4917   -0.7042   21.0315 N   0  0  0  0  0  0  0  0  0  0  0  0
    6.7463   -0.0567   20.0028 C   0  0  0  0  0  0  0  0  0  0  0  0
    7.1755   -0.1293   18.7052 C   0  0  0  0  0  0  0  0  0  0  0  0
    6.5691    0.4786   17.6567 N   0  0  0  0  0  0  0  0  0  0  0  0
    5.5110    1.2099   17.9180 C   0  0  0  0  0  0  0  0  0  0  0  0
    4.9687    1.3916   19.2228 C   0  0  0  0  0  0  0  0  0  0  0  0
    3.8512    2.2338   19.4710 C   0  0  0  0  0  0  0  0  0  0  0  0
    3.3593    2.3859   20.7406 C   0  0  0  0  0  0  0  0  0  0  0  0
    3.9295    1.6585   21.8121 C   0  0  0  0  0  0  0  0  0  0  0  0
    4.9992    0.8218   21.5884 C   0  0  0  0  0  0  0  0  0  0  0  0
    5.5803    0.7087   20.2981 C   0  0  0  0  0  0  0  0  0  0  0  0
    8.5178   -0.5291   24.1200 C   0  0  0  0  0  0  0  0  0  0  0  0
    6.6313    2.8049   23.5952 N   0  0  0  0  0  0  0  0  0  0  0  0
    6.1274    3.9699   22.9902 C   0  0  0  0  0  0  0  0  0  0  0  0
    6.7832    4.3987   21.8419 C   0  0  0  0  0  0  0  0  0  0  0  0
    6.3926    5.5693   21.2165 C   0  0  0  0  0  0  0  0  0  0  0  0
    5.2563    6.2440   21.6595 C   0  0  0  0  0  0  0  0  0  0  0  0
    4.7624    7.3827   20.9804 N   0  0  0  0  0  0  0  0  0  0  0  0
    5.7094    8.2239   20.2599 C   0  0  0  0  0  0  0  0  0  0  0  0
    5.0881    9.5658   19.9064 C   0  0  0  0  0  0  0  0  0  0  0  0
    3.7936    9.4125   19.3698 O   0  0  0  0  0  0  0  0  0  0  0  0
    2.9246    8.8226   20.3020 C   0  0  0  0  0  0  0  0  0  0  0  0
    3.3996    7.4491   20.7385 C   0  0  0  0  0  0  0  0  0  0  0  0
    2.6317    6.5281   20.9314 O   0  0  0  0  0  0  0  0  0  0  0  0
    4.5757    5.7845   22.7835 C   0  0  0  0  0  0  0  0  0  0  0  0
    5.0271    4.6716   23.4682 C   0  0  0  0  0  0  0  0  0  0  0  0
    7.0623    0.7022   25.6300 H   0  0  0  0  0  0  0  0  0  0  0  0
    8.2890    1.7892   26.2553 H   0  0  0  0  0  0  0  0  0  0  0  0
    8.6103    1.4066   23.4216 H   0  0  0  0  0  0  0  0  0  0  0  0
   10.3467    0.8320   25.7173 H   0  0  0  0  0  0  0  0  0  0  0  0
   10.3421    2.2863   24.7217 H   0  0  0  0  0  0  0  0  0  0  0  0
   12.7494    1.7118   24.4149 H   0  0  0  0  0  0  0  0  0  0  0  0
   14.4429    0.4768   23.0712 H   0  0  0  0  0  0  0  0  0  0  0  0
   11.3356   -2.0613   21.5437 H   0  0  0  0  0  0  0  0  0  0  0  0
    9.0830   -1.9026   22.5338 H   0  0  0  0  0  0  0  0  0  0  0  0
    7.4041   -1.7024   21.1400 H   0  0  0  0  0  0  0  0  0  0  0  0
    8.0783   -0.6917   18.4748 H   0  0  0  0  0  0  0  0  0  0  0  0
    5.0199    1.6987   17.0751 H   0  0  0  0  0  0  0  0  0  0  0  0
    3.4209    2.7732   18.6300 H   0  0  0  0  0  0  0  0  0  0  0  0
    2.5384    3.0777   20.9279 H   0  0  0  0  0  0  0  0  0  0  0  0
    3.5366    1.7760   22.8206 H   0  0  0  0  0  0  0  0  0  0  0  0
    5.4202    0.2452   22.4066 H   0  0  0  0  0  0  0  0  0  0  0  0
    8.9438   -1.0900   24.9597 H   0  0  0  0  0  0  0  0  0  0  0  0
    7.4484   -0.7471   24.0631 H   0  0  0  0  0  0  0  0  0  0  0  0
    7.0255    2.1648   22.9178 H   0  0  0  0  0  0  0  0  0  0  0  0
    7.6175    3.8096   21.4643 H   0  0  0  0  0  0  0  0  0  0  0  0
    6.9664    5.9594   20.3843 H   0  0  0  0  0  0  0  0  0  0  0  0
    6.5947    8.3704   20.8869 H   0  0  0  0  0  0  0  0  0  0  0  0
    6.0431    7.7454   19.3323 H   0  0  0  0  0  0  0  0  0  0  0  0
    5.0767   10.2084   20.7986 H   0  0  0  0  0  0  0  0  0  0  0  0
    5.6756   10.0517   19.1227 H   0  0  0  0  0  0  0  0  0  0  0  0
    2.8448    9.4419   21.2108 H   0  0  0  0  0  0  0  0  0  0  0  0
    1.9360    8.7176   19.8446 H   0  0  0  0  0  0  0  0  0  0  0  0
    3.6961    6.3133   23.1306 H   0  0  0  0  0  0  0  0  0  0  0  0
    4.5021    4.3319   24.3531 H   0  0  0  0  0  0  0  0  0  0  0  0
  1  2  2  0
  2  3  1  0
  3  4  1  0
  4  5  1  0
  5  6  1  0
  6  7  2  0
  7  8  1  0
  8  9  2  0
  9 10  1  0
  9 11  1  0
 11 12  2  0
 12 13  1  0
 13 14  1  0
 14 15  2  0
 14 16  1  0
 16 17  1  0
 17 18  2  0
 18 19  1  0
 19 20  2  0
 20 21  1  0
 21 22  2  0
 22 23  1  0
 23 24  2  0
 24 25  1  0
 25 26  2  0
 13 27  1  0
  2 28  1  0
 28 29  1  0
 29 30  2  0
 30 31  1  0
 31 32  2  0
 32 33  1  0
 33 34  1  0
 34 35  1  0
 35 36  1  0
 36 37  1  0
 37 38  1  0
 38 39  2  0
 32 40  1  0
 40 41  2  0
 27  4  1  0
 41 29  1  0
 12  6  1  0
 26 17  1  0
 38 33  1  0
 26 21  1  0
  3 42  1  0
  3 43  1  0
  4 44  1  6
  5 45  1  0
  5 46  1  0
  7 47  1  0
  8 48  1  0
 11 49  1  0
 13 50  1  6
 16 51  1  0
 18 52  1  0
 20 53  1  0
 22 54  1  0
 23 55  1  0
 24 56  1  0
 25 57  1  0
 27 58  1  0
 27 59  1  0
 28 60  1  0
 30 61  1  0
 31 62  1  0
 34 63  1  0
 34 64  1  0
 35 65  1  0
 35 66  1  0
 37 67  1  0
 37 68  1  0
 40 69  1  0
 41 70  1  0
M  CHG  1   4   1
M  END
$$$$
