LIG(A-305)
     RDKit          3D

 24 27  0  0  1  0  0  0  0  0999 V2000
    9.5222    1.2380   21.2941 O   0  0  0  0  0  0  0  0  0  0  0  0
    8.9333    0.2410   21.7072 C   0  0  0  0  0  0  0  0  0  0  0  0
    9.3544   -0.4919   22.9822 C   0  0  2  0  0  0  0  0  0  0  0  0
    8.6724    0.1811   24.1822 C   0  0  0  0  0  0  0  0  0  0  0  0
    9.4474    1.4032   24.6011 C   0  0  0  0  0  0  0  0  0  0  0  0
   10.7944    1.0534   24.9790 O   0  0  0  0  0  0  0  0  0  0  0  0
   10.8684   -0.4248   23.0521 C   0  0  0  0  0  0  0  0  0  0  0  0
   11.4914    0.3783   24.0090 C   0  0  0  0  0  0  0  0  0  0  0  0
   12.8664    0.5464   24.0279 C   0  0  0  0  0  0  0  0  0  0  0  0
   13.6434   -0.0906   23.0779 C   0  0  0  0  0  0  0  0  0  0  0  0
   11.6734   -1.0968   22.1301 C   0  0  0  0  0  0  0  0  0  0  0  0
   13.0404   -0.9147   22.1570 C   0  0  0  0  0  0  0  0  0  0  0  0
   14.0274   -1.7657   21.0010 Cl  0  0  0  0  0  0  0  0  0  0  0  0
    7.9033   -0.3081   21.0593 N   0  0  0  0  0  0  0  0  0  0  0  0
    6.8902    0.1037   20.1864 C   0  0  0  0  0  0  0  0  0  0  0  0
    5.7571    0.9006   20.4114 C   0  0  0  0  0  0  0  0  0  0  0  0
    5.3082    1.1977   21.8204 C   0  0  0  0  0  0  0  0  0  0  0  0
    4.2801    2.2406   21.8944 N   0  0  0  0  0  0  0  0  0  0  0  0
    3.2311    2.0495   20.8775 C   0  0  0  0  0  0  0  0  0  0  0  0
    3.7869    2.1994   19.4805 C   0  0  0  0  0  0  0  0  0  0  0  0
    5.0460    1.3835   19.3024 C   0  0  0  0  0  0  0  0  0  0  0  0
    5.5339    1.0915   18.0444 C   0  0  0  0  0  0  0  0  0  0  0  0
    6.6330    0.3705   17.8114 N   0  0  0  0  0  0  0  0  0  0  0  0
    7.2781   -0.1223   18.8674 C   0  0  0  0  0  0  0  0  0  0  0  0
  1  2  2  0
  3  2  1  6
  2 14  1  0
  3  4  1  0
  3  7  1  0
  4  5  1  0
  5  6  1  0
  6  8  1  0
  7  8  2  0
  7 11  1  0
  8  9  1  0
  9 10  2  0
 10 12  1  0
 11 12  2  0
 12 13  1  0
 14 15  1  0
 15 16  1  0
 15 24  2  0
 16 17  1  0
 16 21  2  0
 17 18  1  0
 18 19  1  0
 19 20  1  0
 20 21  1  0
 21 22  1  0
 22 23  2  0
 23 24  1  0
M  CHG  1  18   1
M  END
$$$$
