
     RDKit          3D

 57 62  0  0  0  0  0  0  0  0999 V2000
    7.1673    4.6511   22.5660 C   0  0  0  0  0  0  0  0  0  0  0  0
    7.9568    3.7119   23.3372 N   0  0  0  0  0  0  0  0  0  0  0  0
    7.6488    3.4580   24.6255 C   0  0  0  0  0  0  0  0  0  0  0  0
    6.7888    4.0751   25.2428 O   0  0  0  0  0  0  0  0  0  0  0  0
    8.4082    2.3220   25.3271 C   0  0  0  0  0  0  0  0  0  0  0  0
    9.2753    1.5005   24.5074 N   0  0  0  0  0  0  0  0  0  0  0  0
    8.8575    0.1428   24.2136 C   0  0  0  0  0  0  0  0  0  0  0  0
    9.4350   -0.4045   22.8730 C   0  0  2  0  0  0  0  0  0  0  0  0
    8.8249    0.4263   21.7107 C   0  0  0  0  0  0  0  0  0  0  0  0
    9.1605    1.5365   21.3395 O   0  0  0  0  0  0  0  0  0  0  0  0
    7.7923   -0.2941   21.1565 N   0  0  0  0  0  0  0  0  0  0  0  0
    6.9513    0.2556   20.1424 C   0  0  0  0  0  0  0  0  0  0  0  0
    7.2193   -0.0107   18.8255 C   0  0  0  0  0  0  0  0  0  0  0  0
    6.4896    0.4464   17.7752 N   0  0  0  0  0  0  0  0  0  0  0  0
    5.4514    1.2026   18.0464 C   0  0  0  0  0  0  0  0  0  0  0  0
    5.0445    1.5568   19.3657 C   0  0  0  0  0  0  0  0  0  0  0  0
    3.9125    2.3819   19.6128 C   0  0  0  0  0  0  0  0  0  0  0  0
    3.5411    2.6862   20.8942 C   0  0  0  0  0  0  0  0  0  0  0  0
    4.2792    2.1774   21.9878 C   0  0  0  0  0  0  0  0  0  0  0  0
    5.3833    1.3885   21.7724 C   0  0  0  0  0  0  0  0  0  0  0  0
    5.8080    1.0635   20.4548 C   0  0  0  0  0  0  0  0  0  0  0  0
    7.5815   -1.5840   21.7834 C   0  0  0  0  0  0  0  0  0  0  0  0
    8.8482   -1.8191   22.6220 C   0  0  0  0  0  0  0  0  0  0  0  0
    8.7007   -2.7970   23.7692 C   0  0  0  0  0  0  0  0  0  0  0  0
    9.5241   -3.1658   22.5645 C   0  0  0  0  0  0  0  0  0  0  0  0
   10.9361   -0.1837   22.9245 C   0  0  0  0  0  0  0  0  0  0  0  0
   11.8212   -0.9985   22.2194 C   0  0  0  0  0  0  0  0  0  0  0  0
   13.1755   -0.7251   22.2200 C   0  0  0  0  0  0  0  0  0  0  0  0
   14.2540   -1.8136   21.3936 Cl  0  0  0  0  0  0  0  0  0  0  0  0
   13.6936    0.3923   22.8729 C   0  0  0  0  0  0  0  0  0  0  0  0
   12.8185    1.2336   23.5330 C   0  0  0  0  0  0  0  0  0  0  0  0
   11.4548    0.9544   23.5728 C   0  0  0  0  0  0  0  0  0  0  0  0
   10.5606    1.9223   24.2980 C   0  0  0  0  0  0  0  0  0  0  0  0
   10.9340    3.0329   24.6562 O   0  0  0  0  0  0  0  0  0  0  0  0
    7.1782    5.6471   23.0211 H   0  0  0  0  0  0  0  0  0  0  0  0
    7.5937    4.6994   21.5606 H   0  0  0  0  0  0  0  0  0  0  0  0
    6.1259    4.3127   22.4955 H   0  0  0  0  0  0  0  0  0  0  0  0
    8.7357    3.2497   22.8874 H   0  0  0  0  0  0  0  0  0  0  0  0
    7.6361    1.6860   25.7726 H   0  0  0  0  0  0  0  0  0  0  0  0
    8.9850    2.7648   26.1467 H   0  0  0  0  0  0  0  0  0  0  0  0
    9.1671   -0.5352   25.0193 H   0  0  0  0  0  0  0  0  0  0  0  0
    7.7644    0.1262   24.1475 H   0  0  0  0  0  0  0  0  0  0  0  0
    8.0756   -0.6307   18.5708 H   0  0  0  0  0  0  0  0  0  0  0  0
    4.8807    1.5760   17.1937 H   0  0  0  0  0  0  0  0  0  0  0  0
    3.3611    2.7730   18.7600 H   0  0  0  0  0  0  0  0  0  0  0  0
    2.6887    3.3342   21.0854 H   0  0  0  0  0  0  0  0  0  0  0  0
    3.9934    2.4436   23.0040 H   0  0  0  0  0  0  0  0  0  0  0  0
    5.9490    1.0044   22.6159 H   0  0  0  0  0  0  0  0  0  0  0  0
    6.7114   -1.5591   22.4622 H   0  0  0  0  0  0  0  0  0  0  0  0
    7.4056   -2.3519   21.0265 H   0  0  0  0  0  0  0  0  0  0  0  0
    7.7344   -3.2700   23.9554 H   0  0  0  0  0  0  0  0  0  0  0  0
    9.2503   -2.6021   24.6887 H   0  0  0  0  0  0  0  0  0  0  0  0
   10.6008   -3.2296   22.6827 H   0  0  0  0  0  0  0  0  0  0  0  0
    9.1299   -3.8907   21.8492 H   0  0  0  0  0  0  0  0  0  0  0  0
   11.4565   -1.8363   21.6452 H   0  0  0  0  0  0  0  0  0  0  0  0
   14.7562    0.6030   22.8350 H   0  0  0  0  0  0  0  0  0  0  0  0
   13.1555    2.1429   24.0165 H   0  0  0  0  0  0  0  0  0  0  0  0
  1  2  1  0
  2  3  1  0
  3  4  2  0
  3  5  1  0
  5  6  1  0
  6  7  1  0
  8  7  1  1
  8  9  1  0
  9 10  2  0
  9 11  1  0
 11 12  1  0
 12 13  2  0
 13 14  1  0
 14 15  2  0
 15 16  1  0
 16 17  2  0
 17 18  1  0
 18 19  2  0
 19 20  1  0
 20 21  2  0
 11 22  1  0
 22 23  1  0
 23 24  1  0
 24 25  1  0
  8 26  1  0
 26 27  2  0
 27 28  1  0
 28 29  1  0
 28 30  2  0
 30 31  1  0
 31 32  2  0
 32 33  1  0
 33 34  2  0
 33  6  1  0
 23  8  1  0
 32 26  1  0
 21 12  1  0
 25 23  1  0
 21 16  1  0
  1 35  1  0
  1 36  1  0
  1 37  1  0
  2 38  1  0
  5 39  1  0
  5 40  1  0
  7 41  1  0
  7 42  1  0
 13 43  1  0
 15 44  1  0
 17 45  1  0
 18 46  1  0
 19 47  1  0
 20 48  1  0
 22 49  1  0
 22 50  1  0
 24 51  1  0
 24 52  1  0
 25 53  1  0
 25 54  1  0
 27 55  1  0
 30 56  1  0
 31 57  1  0
M  END
$$$$
