
     RDKit          3D

 63 68  0  0  0  0  0  0  0  0999 V2000
    9.0816   -2.7974   23.8919 C   0  0  0  0  0  0  0  0  0  0  0  0
    9.1571   -1.8448   22.6977 C   0  0  1  0  0  0  0  0  0  0  0  0
    7.8132   -1.6434   21.9728 C   0  0  0  0  0  0  0  0  0  0  0  0
    7.9932   -0.3667   21.3039 N   0  0  0  0  0  0  0  0  0  0  0  0
    7.1624    0.1110   20.2572 C   0  0  0  0  0  0  0  0  0  0  0  0
    7.4800   -0.1898   18.9588 C   0  0  0  0  0  0  0  0  0  0  0  0
    6.7458    0.1787   17.8766 N   0  0  0  0  0  0  0  0  0  0  0  0
    5.6626    0.8825   18.1028 C   0  0  0  0  0  0  0  0  0  0  0  0
    5.2110    1.2719   19.3989 C   0  0  0  0  0  0  0  0  0  0  0  0
    4.0397    2.0557   19.5852 C   0  0  0  0  0  0  0  0  0  0  0  0
    3.6267    2.3960   20.8441 C   0  0  0  0  0  0  0  0  0  0  0  0
    4.3565    1.9593   21.9743 C   0  0  0  0  0  0  0  0  0  0  0  0
    5.5001    1.2126   21.8197 C   0  0  0  0  0  0  0  0  0  0  0  0
    5.9700    0.8625   20.5230 C   0  0  0  0  0  0  0  0  0  0  0  0
    9.0579    0.3696   21.7758 C   0  0  0  0  0  0  0  0  0  0  0  0
    9.4132    1.4350   21.3091 O   0  0  0  0  0  0  0  0  0  0  0  0
    9.6572   -0.3935   22.9869 C   0  0  1  0  0  0  0  0  0  0  0  0
    9.0037    0.1550   24.2777 C   0  0  0  0  0  0  0  0  0  0  0  0
    9.5814    1.4370   24.6751 N   0  0  0  0  0  0  0  0  0  0  0  0
    8.7216    2.2617   25.5208 C   0  0  0  0  0  0  0  0  0  0  0  0
    7.6532    3.0828   24.7754 C   0  0  0  0  0  0  0  0  0  0  0  0
    6.5422    3.2593   25.2461 O   0  0  0  0  0  0  0  0  0  0  0  0
    8.0441    3.5819   23.5714 N   0  0  0  0  0  0  0  0  0  0  0  0
    7.1637    4.4180   22.7745 C   0  0  0  0  0  0  0  0  0  0  0  0
    7.1652    5.8781   23.1726 C   0  0  0  0  0  0  0  0  0  0  0  0
    6.6868    6.0487   24.4486 F   0  0  0  0  0  0  0  0  0  0  0  0
    6.8416    6.9332   22.1649 C   0  0  0  0  0  0  0  0  0  0  0  0
    8.2553    6.7936   22.7200 C   0  0  0  0  0  0  0  0  0  0  0  0
   10.9380    1.4005   24.9794 C   0  0  0  0  0  0  0  0  0  0  0  0
   11.4303    1.9738   25.9350 O   0  0  0  0  0  0  0  0  0  0  0  0
   11.7612    0.6400   23.9823 C   0  0  0  0  0  0  0  0  0  0  0  0
   13.1420    0.8568   23.9623 C   0  0  0  0  0  0  0  0  0  0  0  0
   13.9466    0.2327   23.0287 C   0  0  0  0  0  0  0  0  0  0  0  0
   13.3391   -0.6336   22.1266 C   0  0  0  0  0  0  0  0  0  0  0  0
   14.1078   -1.2565   21.2186 F   0  0  0  0  0  0  0  0  0  0  0  0
   11.9819   -0.8770   22.1243 C   0  0  0  0  0  0  0  0  0  0  0  0
   11.1601   -0.2277   23.0596 C   0  0  0  0  0  0  0  0  0  0  0  0
    8.2705   -2.5161   24.5747 H   0  0  0  0  0  0  0  0  0  0  0  0
   10.0142   -2.7868   24.4673 H   0  0  0  0  0  0  0  0  0  0  0  0
    8.8952   -3.8273   23.5672 H   0  0  0  0  0  0  0  0  0  0  0  0
    9.8627   -2.2623   21.9732 H   0  0  0  0  0  0  0  0  0  0  0  0
    6.9826   -1.6168   22.6983 H   0  0  0  0  0  0  0  0  0  0  0  0
    7.5850   -2.4297   21.2460 H   0  0  0  0  0  0  0  0  0  0  0  0
    8.3770   -0.7699   18.7483 H   0  0  0  0  0  0  0  0  0  0  0  0
    5.0811    1.1813   17.2298 H   0  0  0  0  0  0  0  0  0  0  0  0
    3.4987    2.3882   18.7028 H   0  0  0  0  0  0  0  0  0  0  0  0
    2.7492    3.0215   20.9876 H   0  0  0  0  0  0  0  0  0  0  0  0
    4.0316    2.2496   22.9719 H   0  0  0  0  0  0  0  0  0  0  0  0
    6.0575    0.8892   22.6947 H   0  0  0  0  0  0  0  0  0  0  0  0
    7.9349    0.3121   24.1078 H   0  0  0  0  0  0  0  0  0  0  0  0
    9.1200   -0.5801   25.0934 H   0  0  0  0  0  0  0  0  0  0  0  0
    9.3859    2.9371   26.0660 H   0  0  0  0  0  0  0  0  0  0  0  0
    8.1793    1.6672   26.2640 H   0  0  0  0  0  0  0  0  0  0  0  0
    8.9940    3.4235   23.2670 H   0  0  0  0  0  0  0  0  0  0  0  0
    6.1450    4.0221   22.8564 H   0  0  0  0  0  0  0  0  0  0  0  0
    7.4868    4.3510   21.7270 H   0  0  0  0  0  0  0  0  0  0  0  0
    6.2537    7.7870   22.4947 H   0  0  0  0  0  0  0  0  0  0  0  0
    6.6313    6.6317   21.1364 H   0  0  0  0  0  0  0  0  0  0  0  0
    9.0483    6.3867   22.0907 H   0  0  0  0  0  0  0  0  0  0  0  0
    8.5951    7.5500   23.4236 H   0  0  0  0  0  0  0  0  0  0  0  0
   13.5606    1.5513   24.6820 H   0  0  0  0  0  0  0  0  0  0  0  0
   15.0147    0.4155   22.9596 H   0  0  0  0  0  0  0  0  0  0  0  0
   11.5809   -1.5599   21.3806 H   0  0  0  0  0  0  0  0  0  0  0  0
  1  2  1  0
  2  3  1  0
  3  4  1  0
  4  5  1  0
  5  6  2  0
  6  7  1  0
  7  8  2  0
  8  9  1  0
  9 10  2  0
 10 11  1  0
 11 12  2  0
 12 13  1  0
 13 14  2  0
  4 15  1  0
 15 16  2  0
 15 17  1  0
 17 18  1  1
 18 19  1  0
 19 20  1  0
 20 21  1  0
 21 22  2  0
 21 23  1  0
 23 24  1  0
 24 25  1  0
 25 26  1  0
 25 27  1  0
 27 28  1  0
 19 29  1  0
 29 30  2  0
 29 31  1  0
 31 32  2  0
 32 33  1  0
 33 34  2  0
 34 35  1  0
 34 36  1  0
 36 37  2  0
 17  2  1  0
 28 25  1  0
 37 31  1  0
 14  5  1  0
 37 17  1  0
 14  9  1  0
  1 38  1  0
  1 39  1  0
  1 40  1  0
  2 41  1  6
  3 42  1  0
  3 43  1  0
  6 44  1  0
  8 45  1  0
 10 46  1  0
 11 47  1  0
 12 48  1  0
 13 49  1  0
 18 50  1  0
 18 51  1  0
 20 52  1  0
 20 53  1  0
 23 54  1  0
 24 55  1  0
 24 56  1  0
 27 57  1  0
 27 58  1  0
 28 59  1  0
 28 60  1  0
 32 61  1  0
 33 62  1  0
 36 63  1  0
M  END
$$$$
