LIG(A-307)
     RDKit          3D

 34 39  0  0  1  0  0  0  0  0999 V2000
    9.4479    1.4603   21.3926 O   0  0  0  0  0  0  0  0  0  0  0  0
    9.0648    0.3802   21.8163 C   0  0  0  0  0  0  0  0  0  0  0  0
    8.0123   -0.3369   21.3266 N   0  0  0  0  0  0  0  0  0  0  0  0
    7.1388    0.0868   20.2718 C   0  0  0  0  0  0  0  0  0  0  0  0
    5.9481    0.8356   20.5139 C   0  0  0  0  0  0  0  0  0  0  0  0
    5.4894    1.2089   21.8048 C   0  0  0  0  0  0  0  0  0  0  0  0
    4.3604    1.9670   21.9597 C   0  0  0  0  0  0  0  0  0  0  0  0
    3.6453    2.4054   20.8528 C   0  0  0  0  0  0  0  0  0  0  0  0
    4.0411    2.0687   19.5891 C   0  0  0  0  0  0  0  0  0  0  0  0
    5.1895    1.2614   19.3841 C   0  0  0  0  0  0  0  0  0  0  0  0
    5.6466    0.8782   18.0984 C   0  0  0  0  0  0  0  0  0  0  0  0
    6.7473    0.1685   17.8805 N   0  0  0  0  0  0  0  0  0  0  0  0
    7.4649   -0.1973   18.9511 C   0  0  0  0  0  0  0  0  0  0  0  0
    7.8462   -1.6382   21.9987 C   0  0  0  0  0  0  0  0  0  0  0  0
    9.1846   -1.8415   22.7058 C   0  0  0  0  0  0  0  0  0  0  0  0
    9.6664   -0.4019   22.9936 C   0  0  1  0  0  0  0  0  0  0  0  0
   11.1941   -0.2555   23.0553 C   0  0  0  0  0  0  0  0  0  0  0  0
   11.7711    0.6259   23.9846 C   0  0  0  0  0  0  0  0  0  0  0  0
   13.1465    0.8580   23.9375 C   0  0  0  0  0  0  0  0  0  0  0  0
   13.9436    0.2342   22.9926 C   0  0  0  0  0  0  0  0  0  0  0  0
   12.0086   -0.9269   22.1403 C   0  0  0  0  0  0  0  0  0  0  0  0
   13.3651   -0.6573   22.1135 C   0  0  0  0  0  0  0  0  0  0  0  0
   14.3579   -1.4327   20.9056 Cl  0  0  0  0  0  0  0  0  0  0  0  0
    8.9704    0.1587   24.2608 C   0  0  0  0  0  0  0  0  0  0  0  0
    9.5204    1.4732   24.5880 N   0  0  2  0  0  0  0  0  0  0  0  0
   10.9261    1.3490   25.0106 C   0  0  0  0  0  0  0  0  0  0  0  0
    8.6980    2.2663   25.4977 C   0  0  0  0  0  0  0  0  0  0  0  0
    7.6529    3.1095   24.7830 C   0  0  0  0  0  0  0  0  0  0  0  0
    6.5339    3.2895   25.2667 O   0  0  0  0  0  0  0  0  0  0  0  0
    8.0313    3.6057   23.6059 N   0  0  0  0  0  0  0  0  0  0  0  0
    7.1644    4.4272   22.7678 C   0  0  0  0  0  0  0  0  0  0  0  0
    7.1481    5.8787   23.2139 C   0  0  0  0  0  0  0  0  0  0  0  0
    6.8473    6.9204   22.1851 C   0  0  0  0  0  0  0  0  0  0  0  0
    8.2325    6.7845   22.7320 C   0  0  0  0  0  0  0  0  0  0  0  0
  1  2  2  0
  2  3  1  0
 16  2  1  0
  3  4  1  0
  3 14  1  0
  4  5  1  0
  4 13  2  0
  5  6  2  0
  5 10  1  0
  6  7  1  0
  7  8  2  0
  8  9  1  0
  9 10  2  0
 10 11  1  0
 11 12  2  0
 12 13  1  0
 14 15  1  0
 16 15  1  6
 16 17  1  0
 16 24  1  0
 17 18  1  0
 17 21  2  0
 18 19  2  0
 18 26  1  0
 19 20  1  0
 20 22  2  0
 21 22  1  0
 22 23  1  0
 24 25  1  0
 25 26  1  0
 25 27  1  1
 27 28  1  0
 28 29  2  0
 28 30  1  0
 30 31  1  0
 31 32  1  0
 32 33  1  0
 32 34  1  0
 33 34  1  0
M  CHG  1  25   1
M  END
$$$$
