
     RDKit          3D

 59 64  0  0  0  0  0  0  0  0999 V2000
    8.8505   -2.7971   23.6501 C   0  0  0  0  0  0  0  0  0  0  0  0
    8.9110   -1.7940   22.5052 C   0  0  1  0  0  0  0  0  0  0  0  0
    7.5667   -1.5489   21.8057 C   0  0  0  0  0  0  0  0  0  0  0  0
    7.7797   -0.2684   21.1568 N   0  0  0  0  0  0  0  0  0  0  0  0
    6.9433    0.2664   20.1402 C   0  0  0  0  0  0  0  0  0  0  0  0
    7.2128   -0.0127   18.8260 C   0  0  0  0  0  0  0  0  0  0  0  0
    6.4874    0.4435   17.7727 N   0  0  0  0  0  0  0  0  0  0  0  0
    5.4506    1.2043   18.0412 C   0  0  0  0  0  0  0  0  0  0  0  0
    5.0342    1.5543   19.3579 C   0  0  0  0  0  0  0  0  0  0  0  0
    3.9057    2.3859   19.6088 C   0  0  0  0  0  0  0  0  0  0  0  0
    3.5386    2.6882   20.8909 C   0  0  0  0  0  0  0  0  0  0  0  0
    4.2686    2.1661   21.9836 C   0  0  0  0  0  0  0  0  0  0  0  0
    5.3768    1.3844   21.7725 C   0  0  0  0  0  0  0  0  0  0  0  0
    5.7933    1.0623   20.4524 C   0  0  0  0  0  0  0  0  0  0  0  0
    8.8200    0.4551   21.6992 C   0  0  0  0  0  0  0  0  0  0  0  0
    9.1612    1.5529   21.3153 O   0  0  0  0  0  0  0  0  0  0  0  0
    9.4272   -0.3719   22.8604 C   0  0  1  0  0  0  0  0  0  0  0  0
    8.8528    0.1235   24.2141 C   0  0  0  0  0  0  0  0  0  0  0  0
    9.2795    1.4719   24.5332 N   0  0  0  0  0  0  0  0  0  0  0  0
    8.3825    2.3010   25.3184 C   0  0  0  0  0  0  0  0  0  0  0  0
    7.5083    3.2025   24.4940 C   0  0  0  0  0  0  0  0  0  0  0  0
    6.1990    3.6294   24.7773 C   0  0  0  0  0  0  0  0  0  0  0  0
    5.7352    4.4577   23.8436 N   0  0  0  0  0  0  0  0  0  0  0  0
    6.7405    4.5670   22.9663 N   0  0  0  0  0  0  0  0  0  0  0  0
    6.5784    5.2963   21.7369 C   0  0  0  0  0  0  0  0  0  0  0  0
    7.8176    3.8276   23.3115 C   0  0  0  0  0  0  0  0  0  0  0  0
   10.5420    1.9254   24.2747 C   0  0  0  0  0  0  0  0  0  0  0  0
   10.9134    3.0380   24.6195 O   0  0  0  0  0  0  0  0  0  0  0  0
   11.4415    0.9605   23.5518 C   0  0  0  0  0  0  0  0  0  0  0  0
   12.8087    1.2404   23.5176 C   0  0  0  0  0  0  0  0  0  0  0  0
   13.6892    0.3939   22.8722 C   0  0  0  0  0  0  0  0  0  0  0  0
   13.1656   -0.7478   22.2709 C   0  0  0  0  0  0  0  0  0  0  0  0
   14.0028   -1.5792   21.6271 F   0  0  0  0  0  0  0  0  0  0  0  0
   11.8201   -1.0556   22.2883 C   0  0  0  0  0  0  0  0  0  0  0  0
   10.9269   -0.1884   22.9267 C   0  0  0  0  0  0  0  0  0  0  0  0
    8.5952   -3.8004   23.2933 H   0  0  0  0  0  0  0  0  0  0  0  0
    8.0971   -2.5078   24.3897 H   0  0  0  0  0  0  0  0  0  0  0  0
    9.8079   -2.8636   24.1777 H   0  0  0  0  0  0  0  0  0  0  0  0
    9.5733   -2.1975   21.7354 H   0  0  0  0  0  0  0  0  0  0  0  0
    6.7440   -1.5300   22.5429 H   0  0  0  0  0  0  0  0  0  0  0  0
    7.3277   -2.3179   21.0666 H   0  0  0  0  0  0  0  0  0  0  0  0
    8.0703   -0.6318   18.5705 H   0  0  0  0  0  0  0  0  0  0  0  0
    4.8746    1.5824   17.1940 H   0  0  0  0  0  0  0  0  0  0  0  0
    3.3481    2.7829   18.7623 H   0  0  0  0  0  0  0  0  0  0  0  0
    2.6821    3.3325   21.0821 H   0  0  0  0  0  0  0  0  0  0  0  0
    3.9747    2.4194   22.9978 H   0  0  0  0  0  0  0  0  0  0  0  0
    5.9486    0.9944   22.6114 H   0  0  0  0  0  0  0  0  0  0  0  0
    7.7582    0.1134   24.1755 H   0  0  0  0  0  0  0  0  0  0  0  0
    9.1726   -0.5501   25.0219 H   0  0  0  0  0  0  0  0  0  0  0  0
    7.7557    1.6396   25.9300 H   0  0  0  0  0  0  0  0  0  0  0  0
    8.9970    2.8892   26.0082 H   0  0  0  0  0  0  0  0  0  0  0  0
    5.5850    3.3454   25.6243 H   0  0  0  0  0  0  0  0  0  0  0  0
    5.8088    6.0523   21.8730 H   0  0  0  0  0  0  0  0  0  0  0  0
    7.5228    5.7808   21.4873 H   0  0  0  0  0  0  0  0  0  0  0  0
    6.2937    4.6373   20.9103 H   0  0  0  0  0  0  0  0  0  0  0  0
    8.7162    3.7984   22.6995 H   0  0  0  0  0  0  0  0  0  0  0  0
   13.1687    2.1370   24.0090 H   0  0  0  0  0  0  0  0  0  0  0  0
   14.7556    0.5983   22.8121 H   0  0  0  0  0  0  0  0  0  0  0  0
   11.4903   -1.9697   21.8035 H   0  0  0  0  0  0  0  0  0  0  0  0
  1  2  1  0
  2  3  1  0
  3  4  1  0
  4  5  1  0
  5  6  2  0
  6  7  1  0
  7  8  2  0
  8  9  1  0
  9 10  2  0
 10 11  1  0
 11 12  2  0
 12 13  1  0
 13 14  2  0
  4 15  1  0
 15 16  2  0
 15 17  1  0
 17 18  1  1
 18 19  1  0
 19 20  1  0
 20 21  1  0
 21 22  1  0
 22 23  2  0
 23 24  1  0
 24 25  1  0
 24 26  1  0
 19 27  1  0
 27 28  2  0
 27 29  1  0
 29 30  2  0
 30 31  1  0
 31 32  2  0
 32 33  1  0
 32 34  1  0
 34 35  2  0
 17  2  1  0
 26 21  2  0
 35 29  1  0
 14  5  1  0
 35 17  1  0
 14  9  1  0
  1 36  1  0
  1 37  1  0
  1 38  1  0
  2 39  1  6
  3 40  1  0
  3 41  1  0
  6 42  1  0
  8 43  1  0
 10 44  1  0
 11 45  1  0
 12 46  1  0
 13 47  1  0
 18 48  1  0
 18 49  1  0
 20 50  1  0
 20 51  1  0
 22 52  1  0
 25 53  1  0
 25 54  1  0
 25 55  1  0
 26 56  1  0
 30 57  1  0
 31 58  1  0
 34 59  1  0
M  END
$$$$
