
     RDKit          3D

 40 44  0  0  0  0  0  0  0  0999 V2000
   -7.6043   -2.9985  -21.1073 O   0  0  0  0  0  0  0  0  0  0  0  0
   -8.3533   -2.1045  -21.4266 C   0  0  0  0  0  0  0  0  0  0  0  0
   -9.3395   -2.1103  -22.3797 N   0  0  0  0  0  0  0  0  0  0  0  0
   -9.9375   -0.8062  -22.6394 C   0  0  1  0  0  0  0  0  0  0  0  0
   -9.3040   -0.0925  -23.8782 C   0  0  0  0  0  0  0  0  0  0  0  0
  -10.3133    0.3686  -24.9161 C   0  0  0  0  0  0  0  0  0  0  0  0
  -11.4503    0.9691  -24.3174 O   0  0  0  0  0  0  0  0  0  0  0  0
  -12.1208    0.1252  -23.5013 C   0  0  0  0  0  0  0  0  0  0  0  0
  -13.5027    0.2251  -23.4601 C   0  0  0  0  0  0  0  0  0  0  0  0
  -14.1927   -0.6892  -22.6825 C   0  0  0  0  0  0  0  0  0  0  0  0
  -13.6065   -1.6486  -21.9581 N   0  0  0  0  0  0  0  0  0  0  0  0
  -12.2711   -1.6927  -21.9806 C   0  0  0  0  0  0  0  0  0  0  0  0
  -11.4570   -0.8244  -22.7172 C   0  0  0  0  0  0  0  0  0  0  0  0
   -9.4296   -0.0519  -21.3860 C   0  0  0  0  0  0  0  0  0  0  0  0
   -9.8050    1.0016  -20.9488 O   0  0  0  0  0  0  0  0  0  0  0  0
   -8.3859   -0.8179  -20.8591 N   0  0  0  0  0  0  0  0  0  0  0  0
   -7.5097   -0.3231  -19.8549 C   0  0  0  0  0  0  0  0  0  0  0  0
   -7.8077   -0.5308  -18.5367 C   0  0  0  0  0  0  0  0  0  0  0  0
   -7.1333    0.0340  -17.5022 N   0  0  0  0  0  0  0  0  0  0  0  0
   -6.1349    0.8326  -17.7963 C   0  0  0  0  0  0  0  0  0  0  0  0
   -5.6971    1.1045  -19.1229 C   0  0  0  0  0  0  0  0  0  0  0  0
   -4.6087    1.9756  -19.3900 C   0  0  0  0  0  0  0  0  0  0  0  0
   -4.1951    2.1844  -20.6759 C   0  0  0  0  0  0  0  0  0  0  0  0
   -4.8389    1.5285  -21.7480 C   0  0  0  0  0  0  0  0  0  0  0  0
   -5.8999    0.6910  -21.5170 C   0  0  0  0  0  0  0  0  0  0  0  0
   -6.3733    0.4793  -20.1929 C   0  0  0  0  0  0  0  0  0  0  0  0
   -9.4470   -2.9016  -22.9933 H   0  0  0  0  0  0  0  0  0  0  0  0
   -8.7317    0.7786  -23.5366 H   0  0  0  0  0  0  0  0  0  0  0  0
   -8.5983   -0.7748  -24.3535 H   0  0  0  0  0  0  0  0  0  0  0  0
   -9.8943    1.1567  -25.5436 H   0  0  0  0  0  0  0  0  0  0  0  0
  -10.6470   -0.4704  -25.5402 H   0  0  0  0  0  0  0  0  0  0  0  0
  -13.9999    0.9834  -24.0599 H   0  0  0  0  0  0  0  0  0  0  0  0
  -15.2788   -0.6293  -22.6518 H   0  0  0  0  0  0  0  0  0  0  0  0
  -11.8157   -2.4768  -21.3791 H   0  0  0  0  0  0  0  0  0  0  0  0
   -8.6452   -1.1730  -18.2733 H   0  0  0  0  0  0  0  0  0  0  0  0
   -5.6062    1.3076  -16.9673 H   0  0  0  0  0  0  0  0  0  0  0  0
   -4.1144    2.4700  -18.5580 H   0  0  0  0  0  0  0  0  0  0  0  0
   -3.3605    2.8475  -20.8834 H   0  0  0  0  0  0  0  0  0  0  0  0
   -4.4886    1.6917  -22.7626 H   0  0  0  0  0  0  0  0  0  0  0  0
   -6.3865    0.1866  -22.3460 H   0  0  0  0  0  0  0  0  0  0  0  0
  1  2  2  0
  2  3  1  0
  4  3  1  6
  4  5  1  0
  5  6  1  0
  6  7  1  0
  7  8  1  0
  8  9  2  0
  9 10  1  0
 10 11  2  0
 11 12  1  0
 12 13  2  0
  4 14  1  0
 14 15  2  0
 14 16  1  0
 16 17  1  0
 17 18  2  0
 18 19  1  0
 19 20  2  0
 20 21  1  0
 21 22  2  0
 22 23  1  0
 23 24  2  0
 24 25  1  0
 25 26  2  0
 16  2  1  0
 26 17  1  0
 13  4  1  0
 26 21  1  0
 13  8  1  0
  3 27  1  0
  5 28  1  0
  5 29  1  0
  6 30  1  0
  6 31  1  0
  9 32  1  0
 10 33  1  0
 12 34  1  0
 18 35  1  0
 20 36  1  0
 22 37  1  0
 23 38  1  0
 24 39  1  0
 25 40  1  0
M  END
$$$$
