
     RDKit          3D

 42 45  0  0  0  0  0  0  0  0999 V2000
   -8.9446    0.3049  -21.1690 O   0  0  0  0  0  0  0  0  0  0  0  0
   -8.4706   -0.7823  -21.4263 C   0  0  0  0  0  0  0  0  0  0  0  0
   -9.2415   -1.9172  -22.1035 C   0  0  1  0  0  0  0  0  0  0  0  0
  -10.6098   -1.4746  -22.5845 C   0  0  0  0  0  0  0  0  0  0  0  0
  -10.7777   -0.4824  -23.5518 C   0  0  0  0  0  0  0  0  0  0  0  0
  -12.0512   -0.0571  -23.9179 C   0  0  0  0  0  0  0  0  0  0  0  0
  -13.1845   -0.6294  -23.3426 C   0  0  0  0  0  0  0  0  0  0  0  0
  -14.7553   -0.0293  -23.7717 Cl  0  0  0  0  0  0  0  0  0  0  0  0
  -13.0303   -1.6716  -22.4237 C   0  0  0  0  0  0  0  0  0  0  0  0
  -14.4021   -2.4781  -21.7316 Cl  0  0  0  0  0  0  0  0  0  0  0  0
  -11.7503   -2.0742  -22.0445 C   0  0  0  0  0  0  0  0  0  0  0  0
   -8.3550   -2.5780  -23.1593 C   0  0  0  0  0  0  0  0  0  0  0  0
   -7.1190   -3.1700  -22.4947 C   0  0  2  0  0  0  0  0  0  0  0  0
   -7.4606   -4.2285  -21.6160 O   0  0  0  0  0  0  0  0  0  0  0  0
   -6.3520   -2.1149  -21.7065 C   0  0  0  0  0  0  0  0  0  0  0  0
   -7.1838   -1.1218  -21.0307 N   0  0  0  0  0  0  0  0  0  0  0  0
   -6.5802   -0.3298  -20.0083 C   0  0  0  0  0  0  0  0  0  0  0  0
   -6.9709   -0.5050  -18.7014 C   0  0  0  0  0  0  0  0  0  0  0  0
   -6.4439    0.1463  -17.6348 N   0  0  0  0  0  0  0  0  0  0  0  0
   -5.4889    1.0185  -17.8713 C   0  0  0  0  0  0  0  0  0  0  0  0
   -4.9787    1.3042  -19.1734 C   0  0  0  0  0  0  0  0  0  0  0  0
   -3.9420    2.2618  -19.3789 C   0  0  0  0  0  0  0  0  0  0  0  0
   -3.4952    2.5336  -20.6458 C   0  0  0  0  0  0  0  0  0  0  0  0
   -4.0715    1.8759  -21.7561 C   0  0  0  0  0  0  0  0  0  0  0  0
   -5.0804    0.9574  -21.5862 C   0  0  0  0  0  0  0  0  0  0  0  0
   -5.5431    0.6250  -20.2797 C   0  0  0  0  0  0  0  0  0  0  0  0
   -9.4074   -2.6739  -21.3274 H   0  0  0  0  0  0  0  0  0  0  0  0
   -9.9123    0.0020  -24.0013 H   0  0  0  0  0  0  0  0  0  0  0  0
  -12.1803    0.7427  -24.6413 H   0  0  0  0  0  0  0  0  0  0  0  0
  -11.6581   -2.8721  -21.3085 H   0  0  0  0  0  0  0  0  0  0  0  0
   -8.0594   -1.8551  -23.9281 H   0  0  0  0  0  0  0  0  0  0  0  0
   -8.9064   -3.3790  -23.6645 H   0  0  0  0  0  0  0  0  0  0  0  0
   -6.4328   -3.5481  -23.2669 H   0  0  0  0  0  0  0  0  0  0  0  0
   -7.7190   -4.9823  -22.1637 H   0  0  0  0  0  0  0  0  0  0  0  0
   -5.6533   -1.6177  -22.3893 H   0  0  0  0  0  0  0  0  0  0  0  0
   -5.7414   -2.6101  -20.9471 H   0  0  0  0  0  0  0  0  0  0  0  0
   -7.7489   -1.2299  -18.4737 H   0  0  0  0  0  0  0  0  0  0  0  0
   -5.0700    1.5494  -17.0149 H   0  0  0  0  0  0  0  0  0  0  0  0
   -3.5210    2.7805  -18.5206 H   0  0  0  0  0  0  0  0  0  0  0  0
   -2.7137    3.2745  -20.8101 H   0  0  0  0  0  0  0  0  0  0  0  0
   -3.7264    2.1077  -22.7606 H   0  0  0  0  0  0  0  0  0  0  0  0
   -5.5434    0.4903  -22.4502 H   0  0  0  0  0  0  0  0  0  0  0  0
  1  2  2  0
  2  3  1  0
  3  4  1  0
  4  5  2  0
  5  6  1  0
  6  7  2  0
  7  8  1  0
  7  9  1  0
  9 10  1  0
  9 11  2  0
  3 12  1  0
 12 13  1  0
 13 14  1  0
 13 15  1  0
 15 16  1  0
 16 17  1  0
 17 18  2  0
 18 19  1  0
 19 20  2  0
 20 21  1  0
 21 22  2  0
 22 23  1  0
 23 24  2  0
 24 25  1  0
 25 26  2  0
 16  2  1  0
 26 17  1  0
 11  4  1  0
 26 21  1  0
  3 27  1  1
  5 28  1  0
  6 29  1  0
 11 30  1  0
 12 31  1  0
 12 32  1  0
 13 33  1  6
 14 34  1  0
 15 35  1  0
 15 36  1  0
 18 37  1  0
 20 38  1  0
 22 39  1  0
 23 40  1  0
 24 41  1  0
 25 42  1  0
M  END
$$$$
