
     RDKit          3D

 56 61  0  0  0  0  0  0  0  0999 V2000
    8.8513   -2.7968   23.6515 C   0  0  0  0  0  0  0  0  0  0  0  0
    8.9118   -1.7992   22.5029 C   0  0  1  0  0  0  0  0  0  0  0  0
    7.5688   -1.5475   21.8075 C   0  0  0  0  0  0  0  0  0  0  0  0
    7.7729   -0.2639   21.1613 N   0  0  0  0  0  0  0  0  0  0  0  0
    6.9375    0.2605   20.1398 C   0  0  0  0  0  0  0  0  0  0  0  0
    7.2100   -0.0161   18.8227 C   0  0  0  0  0  0  0  0  0  0  0  0
    6.4866    0.4449   17.7722 N   0  0  0  0  0  0  0  0  0  0  0  0
    5.4477    1.2059   18.0373 C   0  0  0  0  0  0  0  0  0  0  0  0
    5.0333    1.5528   19.3573 C   0  0  0  0  0  0  0  0  0  0  0  0
    3.9071    2.3874   19.6102 C   0  0  0  0  0  0  0  0  0  0  0  0
    3.5457    2.6920   20.8956 C   0  0  0  0  0  0  0  0  0  0  0  0
    4.2763    2.1706   21.9847 C   0  0  0  0  0  0  0  0  0  0  0  0
    5.3743    1.3724   21.7690 C   0  0  0  0  0  0  0  0  0  0  0  0
    5.7865    1.0544   20.4462 C   0  0  0  0  0  0  0  0  0  0  0  0
    8.8183    0.4620   21.7013 C   0  0  0  0  0  0  0  0  0  0  0  0
    9.1651    1.5528   21.3158 O   0  0  0  0  0  0  0  0  0  0  0  0
    9.4268   -0.3779   22.8584 C   0  0  1  0  0  0  0  0  0  0  0  0
    8.8456    0.1199   24.2092 C   0  0  0  0  0  0  0  0  0  0  0  0
    9.2552    1.4777   24.5049 N   0  0  0  0  0  0  0  0  0  0  0  0
    8.3805    2.3137   25.2971 C   0  0  0  0  0  0  0  0  0  0  0  0
    7.7994    3.4573   24.5313 C   0  0  0  0  0  0  0  0  0  0  0  0
    7.5153    4.7306   25.0553 C   0  0  0  0  0  0  0  0  0  0  0  0
    6.9396    5.4250   24.0219 C   0  0  0  0  0  0  0  0  0  0  0  0
    6.9144    4.5625   22.9823 N   0  0  0  0  0  0  0  0  0  0  0  0
    7.4204    3.3528   23.2576 N   0  0  0  0  0  0  0  0  0  0  0  0
   10.5250    1.9265   24.2667 C   0  0  0  0  0  0  0  0  0  0  0  0
   10.9036    3.0332   24.6283 O   0  0  0  0  0  0  0  0  0  0  0  0
   11.4360    0.9614   23.5566 C   0  0  0  0  0  0  0  0  0  0  0  0
   12.8058    1.2412   23.5199 C   0  0  0  0  0  0  0  0  0  0  0  0
   13.6827    0.3942   22.8708 C   0  0  0  0  0  0  0  0  0  0  0  0
   13.1645   -0.7463   22.2705 C   0  0  0  0  0  0  0  0  0  0  0  0
   13.9990   -1.5787   21.6266 F   0  0  0  0  0  0  0  0  0  0  0  0
   11.8198   -1.0562   22.2896 C   0  0  0  0  0  0  0  0  0  0  0  0
   10.9279   -0.1898   22.9295 C   0  0  0  0  0  0  0  0  0  0  0  0
    8.5958   -3.7973   23.2921 H   0  0  0  0  0  0  0  0  0  0  0  0
    9.8089   -2.8636   24.1787 H   0  0  0  0  0  0  0  0  0  0  0  0
    8.0957   -2.5076   24.3876 H   0  0  0  0  0  0  0  0  0  0  0  0
    9.5645   -2.2141   21.7292 H   0  0  0  0  0  0  0  0  0  0  0  0
    7.3397   -2.3181   21.0688 H   0  0  0  0  0  0  0  0  0  0  0  0
    6.7498   -1.5283   22.5465 H   0  0  0  0  0  0  0  0  0  0  0  0
    8.0706   -0.6313   18.5691 H   0  0  0  0  0  0  0  0  0  0  0  0
    4.8699    1.5856   17.1927 H   0  0  0  0  0  0  0  0  0  0  0  0
    3.3429    2.7864   18.7710 H   0  0  0  0  0  0  0  0  0  0  0  0
    2.6877    3.3317   21.0886 H   0  0  0  0  0  0  0  0  0  0  0  0
    3.9916    2.4281   23.0020 H   0  0  0  0  0  0  0  0  0  0  0  0
    5.9496    1.0010   22.6126 H   0  0  0  0  0  0  0  0  0  0  0  0
    9.1744   -0.5396   25.0249 H   0  0  0  0  0  0  0  0  0  0  0  0
    7.7494    0.0989   24.1646 H   0  0  0  0  0  0  0  0  0  0  0  0
    7.5697    1.6903   25.6885 H   0  0  0  0  0  0  0  0  0  0  0  0
    8.9279    2.6810   26.1695 H   0  0  0  0  0  0  0  0  0  0  0  0
    7.6963    5.0787   26.0606 H   0  0  0  0  0  0  0  0  0  0  0  0
    6.5546    6.4387   23.9614 H   0  0  0  0  0  0  0  0  0  0  0  0
    6.5520    4.7350   22.0629 H   0  0  0  0  0  0  0  0  0  0  0  0
   13.1799    2.1337   24.0078 H   0  0  0  0  0  0  0  0  0  0  0  0
   14.7483    0.6006   22.8136 H   0  0  0  0  0  0  0  0  0  0  0  0
   11.4940   -1.9690   21.8038 H   0  0  0  0  0  0  0  0  0  0  0  0
  1  2  1  0
  2  3  1  0
  3  4  1  0
  4  5  1  0
  5  6  2  0
  6  7  1  0
  7  8  2  0
  8  9  1  0
  9 10  2  0
 10 11  1  0
 11 12  2  0
 12 13  1  0
 13 14  2  0
  4 15  1  0
 15 16  2  0
 15 17  1  0
 17 18  1  1
 18 19  1  0
 19 20  1  0
 20 21  1  0
 21 22  1  0
 22 23  2  0
 23 24  1  0
 24 25  1  0
 19 26  1  0
 26 27  2  0
 26 28  1  0
 28 29  2  0
 29 30  1  0
 30 31  2  0
 31 32  1  0
 31 33  1  0
 33 34  2  0
 17  2  1  0
 25 21  2  0
 34 28  1  0
 14  5  1  0
 34 17  1  0
 14  9  1  0
  1 35  1  0
  1 36  1  0
  1 37  1  0
  2 38  1  6
  3 39  1  0
  3 40  1  0
  6 41  1  0
  8 42  1  0
 10 43  1  0
 11 44  1  0
 12 45  1  0
 13 46  1  0
 18 47  1  0
 18 48  1  0
 20 49  1  0
 20 50  1  0
 22 51  1  0
 23 52  1  0
 24 53  1  0
 29 54  1  0
 30 55  1  0
 33 56  1  0
M  END
$$$$
