
     RDKit          3D

 56 60  0  0  0  0  0  0  0  0999 V2000
    7.1709    4.6482   22.5726 C   0  0  0  0  0  0  0  0  0  0  0  0
    7.9516    3.7023   23.3379 N   0  0  0  0  0  0  0  0  0  0  0  0
    7.6470    3.4569   24.6295 C   0  0  0  0  0  0  0  0  0  0  0  0
    6.7950    4.0763   25.2507 O   0  0  0  0  0  0  0  0  0  0  0  0
    8.3950    2.3132   25.3235 C   0  0  0  0  0  0  0  0  0  0  0  0
    9.2537    1.4903   24.4965 N   0  0  0  0  0  0  0  0  0  0  0  0
    8.8477    0.1265   24.2091 C   0  0  0  0  0  0  0  0  0  0  0  0
    9.4273   -0.3724   22.8602 C   0  0  2  0  0  0  0  0  0  0  0  0
    8.8186    0.4585   21.7015 C   0  0  0  0  0  0  0  0  0  0  0  0
    9.1547    1.5656   21.3275 O   0  0  0  0  0  0  0  0  0  0  0  0
    7.7817   -0.2661   21.1549 N   0  0  0  0  0  0  0  0  0  0  0  0
    6.9434    0.2678   20.1397 C   0  0  0  0  0  0  0  0  0  0  0  0
    7.2125   -0.0130   18.8248 C   0  0  0  0  0  0  0  0  0  0  0  0
    6.4866    0.4433   17.7730 N   0  0  0  0  0  0  0  0  0  0  0  0
    5.4496    1.2046   18.0397 C   0  0  0  0  0  0  0  0  0  0  0  0
    5.0345    1.5545   19.3587 C   0  0  0  0  0  0  0  0  0  0  0  0
    3.9060    2.3858   19.6094 C   0  0  0  0  0  0  0  0  0  0  0  0
    3.5426    2.6897   20.8946 C   0  0  0  0  0  0  0  0  0  0  0  0
    4.2775    2.1777   21.9899 C   0  0  0  0  0  0  0  0  0  0  0  0
    5.3794    1.3875   21.7733 C   0  0  0  0  0  0  0  0  0  0  0  0
    5.7938    1.0625   20.4505 C   0  0  0  0  0  0  0  0  0  0  0  0
    7.5662   -1.5467   21.8057 C   0  0  0  0  0  0  0  0  0  0  0  0
    8.9096   -1.7935   22.5050 C   0  0  2  0  0  0  0  0  0  0  0  0
    8.8507   -2.7962   23.6493 C   0  0  0  0  0  0  0  0  0  0  0  0
   10.9289   -0.1894   22.9286 C   0  0  0  0  0  0  0  0  0  0  0  0
   11.8237   -1.0516   22.2842 C   0  0  0  0  0  0  0  0  0  0  0  0
   13.1744   -0.7508   22.2548 C   0  0  0  0  0  0  0  0  0  0  0  0
   14.2507   -1.8171   21.3955 Cl  0  0  0  0  0  0  0  0  0  0  0  0
   13.6846    0.3947   22.8692 C   0  0  0  0  0  0  0  0  0  0  0  0
   12.8060    1.2412   23.5224 C   0  0  0  0  0  0  0  0  0  0  0  0
   11.4394    0.9569   23.5611 C   0  0  0  0  0  0  0  0  0  0  0  0
   10.5349    1.9174   24.2803 C   0  0  0  0  0  0  0  0  0  0  0  0
   10.9021    3.0293   24.6363 O   0  0  0  0  0  0  0  0  0  0  0  0
    7.1807    5.6458   23.0230 H   0  0  0  0  0  0  0  0  0  0  0  0
    6.1299    4.3161   22.4972 H   0  0  0  0  0  0  0  0  0  0  0  0
    7.5891    4.6983   21.5661 H   0  0  0  0  0  0  0  0  0  0  0  0
    8.7698    3.2937   22.9063 H   0  0  0  0  0  0  0  0  0  0  0  0
    7.6273    1.6741   25.7704 H   0  0  0  0  0  0  0  0  0  0  0  0
    8.9722    2.7378   26.1526 H   0  0  0  0  0  0  0  0  0  0  0  0
    7.7543    0.1029   24.1673 H   0  0  0  0  0  0  0  0  0  0  0  0
    9.1733   -0.5408   25.0209 H   0  0  0  0  0  0  0  0  0  0  0  0
    8.0697   -0.6312   18.5683 H   0  0  0  0  0  0  0  0  0  0  0  0
    4.8749    1.5819   17.1918 H   0  0  0  0  0  0  0  0  0  0  0  0
    3.3476    2.7834   18.7629 H   0  0  0  0  0  0  0  0  0  0  0  0
    2.6891    3.3344   21.0906 H   0  0  0  0  0  0  0  0  0  0  0  0
    3.9959    2.4395   23.0087 H   0  0  0  0  0  0  0  0  0  0  0  0
    5.9510    1.0030   22.6148 H   0  0  0  0  0  0  0  0  0  0  0  0
    6.7443   -1.5301   22.5431 H   0  0  0  0  0  0  0  0  0  0  0  0
    7.3272   -2.3155   21.0675 H   0  0  0  0  0  0  0  0  0  0  0  0
    9.5734   -2.1939   21.7362 H   0  0  0  0  0  0  0  0  0  0  0  0
    8.5958   -3.7994   23.2941 H   0  0  0  0  0  0  0  0  0  0  0  0
    8.0990   -2.5082   24.3893 H   0  0  0  0  0  0  0  0  0  0  0  0
    9.8068   -2.8638   24.1778 H   0  0  0  0  0  0  0  0  0  0  0  0
   11.4748   -1.9603   21.8046 H   0  0  0  0  0  0  0  0  0  0  0  0
   14.7485    0.6121   22.8145 H   0  0  0  0  0  0  0  0  0  0  0  0
   13.1669    2.1405   24.0122 H   0  0  0  0  0  0  0  0  0  0  0  0
  1  2  1  0
  2  3  1  0
  3  4  2  0
  3  5  1  0
  5  6  1  0
  6  7  1  0
  8  7  1  1
  8  9  1  0
  9 10  2  0
  9 11  1  0
 11 12  1  0
 12 13  2  0
 13 14  1  0
 14 15  2  0
 15 16  1  0
 16 17  2  0
 17 18  1  0
 18 19  2  0
 19 20  1  0
 20 21  2  0
 11 22  1  0
 22 23  1  0
 23 24  1  0
  8 25  1  0
 25 26  2  0
 26 27  1  0
 27 28  1  0
 27 29  2  0
 29 30  1  0
 30 31  2  0
 31 32  1  0
 32 33  2  0
 32  6  1  0
 23  8  1  0
 31 25  1  0
 21 12  1  0
 21 16  1  0
  1 34  1  0
  1 35  1  0
  1 36  1  0
  2 37  1  0
  5 38  1  0
  5 39  1  0
  7 40  1  0
  7 41  1  0
 13 42  1  0
 15 43  1  0
 17 44  1  0
 18 45  1  0
 19 46  1  0
 20 47  1  0
 22 48  1  0
 22 49  1  0
 23 50  1  6
 24 51  1  0
 24 52  1  0
 24 53  1  0
 26 54  1  0
 29 55  1  0
 30 56  1  0
M  END
$$$$
