
     RDKit          3D

 67 71  0  0  0  0  0  0  0  0999 V2000
   -7.4617    3.0974  -22.2108 C   0  0  0  0  0  0  0  0  0  0  0  0
   -8.5532    2.4726  -22.9242 N   0  0  0  0  0  0  0  0  0  0  0  0
   -8.3287    1.6657  -23.9887 C   0  0  0  0  0  0  0  0  0  0  0  0
   -7.2075    1.3793  -24.3884 O   0  0  0  0  0  0  0  0  0  0  0  0
   -9.6025    1.1564  -24.6716 C   0  0  0  0  0  0  0  0  0  0  0  0
  -10.1293   -0.0526  -24.0621 N   0  0  0  0  0  0  0  0  0  0  0  0
   -9.2778   -1.2231  -23.9536 C   0  0  0  0  0  0  0  0  0  0  0  0
   -9.3951   -1.9093  -22.5639 C   0  0  2  0  0  0  0  0  0  0  0  0
   -8.7946   -0.9670  -21.4776 C   0  0  0  0  0  0  0  0  0  0  0  0
   -9.3212    0.0189  -20.9984 O   0  0  0  0  0  0  0  0  0  0  0  0
   -7.5114   -1.3914  -21.1870 N   0  0  0  0  0  0  0  0  0  0  0  0
   -6.7267   -0.8043  -20.1586 C   0  0  0  0  0  0  0  0  0  0  0  0
   -7.0260   -1.0459  -18.8385 C   0  0  0  0  0  0  0  0  0  0  0  0
   -6.3077   -0.5720  -17.7911 N   0  0  0  0  0  0  0  0  0  0  0  0
   -5.2556    0.1635  -18.0638 C   0  0  0  0  0  0  0  0  0  0  0  0
   -4.8262    0.4924  -19.3802 C   0  0  0  0  0  0  0  0  0  0  0  0
   -3.6838    1.3041  -19.6258 C   0  0  0  0  0  0  0  0  0  0  0  0
   -3.3112    1.6101  -20.9060 C   0  0  0  0  0  0  0  0  0  0  0  0
   -4.0676    1.1337  -21.9999 C   0  0  0  0  0  0  0  0  0  0  0  0
   -5.1834    0.3539  -21.7874 C   0  0  0  0  0  0  0  0  0  0  0  0
   -5.5845    0.0003  -20.4701 C   0  0  0  0  0  0  0  0  0  0  0  0
   -5.7868    0.0501  -22.6366 H   0  0  0  0  0  0  0  0  0  0  0  0
   -3.7776    1.3906  -23.0151 H   0  0  0  0  0  0  0  0  0  0  0  0
   -2.4441    2.2412  -21.0906 H   0  0  0  0  0  0  0  0  0  0  0  0
   -3.1252    1.6865  -18.7750 H   0  0  0  0  0  0  0  0  0  0  0  0
   -4.6845    0.5438  -17.2164 H   0  0  0  0  0  0  0  0  0  0  0  0
   -7.8844   -1.6629  -18.5832 H   0  0  0  0  0  0  0  0  0  0  0  0
   -7.0886   -2.5410  -21.9654 C   0  0  0  0  0  0  0  0  0  0  0  0
   -8.4330   -3.1363  -22.4476 C   0  0  2  0  0  0  0  0  0  0  0  0
   -8.3222   -3.9802  -23.7243 C   0  0  0  0  0  0  0  0  0  0  0  0
   -7.3094   -5.4480  -23.5098 S   0  0  0  0  0  0  0  0  0  0  0  0
   -5.9263   -5.0129  -23.3935 O   0  0  0  0  0  0  0  0  0  0  0  0
   -7.9293   -6.2761  -22.4856 O   0  0  0  0  0  0  0  0  0  0  0  0
   -7.4276   -6.2691  -24.9482 N   0  0  0  0  0  0  0  0  0  0  0  0
   -8.6723   -6.9766  -25.2080 C   0  0  0  0  0  0  0  0  0  0  0  0
   -9.4913   -6.3113  -25.5279 H   0  0  0  0  0  0  0  0  0  0  0  0
   -8.4880   -7.7134  -25.9969 H   0  0  0  0  0  0  0  0  0  0  0  0
   -8.9615   -7.5016  -24.2946 H   0  0  0  0  0  0  0  0  0  0  0  0
   -6.7387   -5.6931  -26.0944 C   0  0  0  0  0  0  0  0  0  0  0  0
   -7.2807   -4.8429  -26.5408 H   0  0  0  0  0  0  0  0  0  0  0  0
   -6.6223   -6.4760  -26.8515 H   0  0  0  0  0  0  0  0  0  0  0  0
   -5.7473   -5.3678  -25.7697 H   0  0  0  0  0  0  0  0  0  0  0  0
   -9.3119   -4.3090  -24.0585 H   0  0  0  0  0  0  0  0  0  0  0  0
   -7.8542   -3.4006  -24.5269 H   0  0  0  0  0  0  0  0  0  0  0  0
   -8.7994   -3.7844  -21.6448 H   0  0  0  0  0  0  0  0  0  0  0  0
   -6.4576   -2.2432  -22.8203 H   0  0  0  0  0  0  0  0  0  0  0  0
   -6.5120   -3.2436  -21.3563 H   0  0  0  0  0  0  0  0  0  0  0  0
  -10.8841   -2.1681  -22.3490 C   0  0  0  0  0  0  0  0  0  0  0  0
  -11.3697   -3.2006  -21.5416 C   0  0  0  0  0  0  0  0  0  0  0  0
  -12.7033   -3.2318  -21.1685 C   0  0  0  0  0  0  0  0  0  0  0  0
  -13.1337   -4.0967  -20.2351 F   0  0  0  0  0  0  0  0  0  0  0  0
  -13.6519   -2.3617  -21.6816 C   0  0  0  0  0  0  0  0  0  0  0  0
  -13.1921   -1.3811  -22.5327 C   0  0  0  0  0  0  0  0  0  0  0  0
  -11.8379   -1.2643  -22.8450 C   0  0  0  0  0  0  0  0  0  0  0  0
  -11.4349   -0.0746  -23.6610 C   0  0  0  0  0  0  0  0  0  0  0  0
  -12.2289    0.8131  -23.9284 O   0  0  0  0  0  0  0  0  0  0  0  0
  -13.8612   -0.6462  -22.9576 H   0  0  0  0  0  0  0  0  0  0  0  0
  -14.6921   -2.4590  -21.3856 H   0  0  0  0  0  0  0  0  0  0  0  0
  -10.7120   -3.9524  -21.1248 H   0  0  0  0  0  0  0  0  0  0  0  0
   -9.5495   -1.9458  -24.7358 H   0  0  0  0  0  0  0  0  0  0  0  0
   -8.2528   -0.8889  -24.1192 H   0  0  0  0  0  0  0  0  0  0  0  0
   -9.3679    0.9909  -25.7272 H   0  0  0  0  0  0  0  0  0  0  0  0
  -10.4053    1.8960  -24.6129 H   0  0  0  0  0  0  0  0  0  0  0  0
   -9.4455    2.3897  -22.4642 H   0  0  0  0  0  0  0  0  0  0  0  0
   -7.8355    3.9924  -21.7047 H   0  0  0  0  0  0  0  0  0  0  0  0
   -6.9889    2.3936  -21.5105 H   0  0  0  0  0  0  0  0  0  0  0  0
   -6.7135    3.4022  -22.9433 H   0  0  0  0  0  0  0  0  0  0  0  0
  1  2  1  0
  2  3  1  0
  3  4  2  0
  3  5  1  0
  5  6  1  0
  6  7  1  0
  8  7  1  6
  8  9  1  0
  9 10  2  0
  9 11  1  0
 11 12  1  0
 12 13  2  0
 13 14  1  0
 14 15  2  0
 15 16  1  0
 16 17  2  0
 17 18  1  0
 18 19  2  0
 19 20  1  0
 20 21  2  0
 20 22  1  0
 19 23  1  0
 18 24  1  0
 17 25  1  0
 15 26  1  0
 13 27  1  0
 11 28  1  0
 28 29  1  0
 29 30  1  0
 30 31  1  0
 31 32  2  0
 31 33  2  0
 31 34  1  0
 34 35  1  0
 35 36  1  0
 35 37  1  0
 35 38  1  0
 34 39  1  0
 39 40  1  0
 39 41  1  0
 39 42  1  0
 30 43  1  0
 30 44  1  0
 29 45  1  1
 28 46  1  0
 28 47  1  0
  8 48  1  0
 48 49  2  0
 49 50  1  0
 50 51  1  0
 50 52  2  0
 52 53  1  0
 53 54  2  0
 54 55  1  0
 55 56  2  0
 53 57  1  0
 52 58  1  0
 49 59  1  0
  7 60  1  0
  7 61  1  0
  5 62  1  0
  5 63  1  0
  2 64  1  0
  1 65  1  0
  1 66  1  0
  1 67  1  0
 55  6  1  0
 29  8  1  0
 54 48  1  0
 21 12  1  0
 21 16  1  0
M  END
>  <cnnaffinities>  (1) 
[7.11468, 7.07417, 7.08381, 7.11663, 6.70516]

>  <score>  (1) 
7.11468

>  <index>  (1) 
41

>  <Smiles>  (1) 
C(N(C(=O)C(N1C([C@@]2(C(=O)N(c3c(nc(c4c(c(c(c(c34)[H])[H])[H])[H])[H])[H])C([C@@]2(C(S(=O)(=O)N(C([H])([H])[H])C([H])([H])[H])([H])[H])[H])([H])[H])c2c(c(F)c(c(c2C1=O)[H])[H])[H])([H])[H])([H])[H])[H])([H])([H])[H]

>  <h>  (1) 
<NA>

>  <Training>  (1) 
True

>  <Success>  (1) 
True

>  <enamine_searched>  (1) 
False

>  <enamine_id>  (1) 
nan

$$$$
