
     RDKit          3D

 40 44  0  0  0  0  0  0  0  0999 V2000
   -7.2402    0.9282  -25.5985 C   0  0  0  0  0  0  0  0  0  0  0  0
   -6.5114   -0.3938  -25.4052 C   0  0  0  0  0  0  0  0  0  0  0  0
   -5.2991   -0.5058  -25.5317 O   0  0  0  0  0  0  0  0  0  0  0  0
   -7.2732   -1.4752  -25.0822 N   0  0  0  0  0  0  0  0  0  0  0  0
   -6.6394   -2.7666  -24.7372 C   0  0  0  0  0  0  0  0  0  0  0  0
   -7.8112   -3.4854  -24.0460 C   0  0  2  0  0  0  0  0  0  0  0  0
   -9.0037   -2.9598  -24.8628 C   0  0  0  0  0  0  0  0  0  0  0  0
   -8.6613   -1.4868  -24.5565 C   0  0  1  0  0  0  0  0  0  0  0  0
   -8.5648   -1.5543  -23.0864 C   0  0  0  0  0  0  0  0  0  0  0  0
   -8.1635   -0.6124  -22.0838 C   0  0  0  0  0  0  0  0  0  0  0  0
   -8.3445    0.5792  -21.9878 O   0  0  0  0  0  0  0  0  0  0  0  0
   -7.4003   -1.3909  -21.1799 N   0  0  0  0  0  0  0  0  0  0  0  0
   -6.5824   -0.8257  -20.1689 C   0  0  0  0  0  0  0  0  0  0  0  0
   -6.8945   -1.0594  -18.8560 C   0  0  0  0  0  0  0  0  0  0  0  0
   -6.2072   -0.5471  -17.8055 N   0  0  0  0  0  0  0  0  0  0  0  0
   -5.1737    0.2126  -18.0777 C   0  0  0  0  0  0  0  0  0  0  0  0
   -4.7311    0.5269  -19.3947 C   0  0  0  0  0  0  0  0  0  0  0  0
   -3.5971    1.3519  -19.6295 C   0  0  0  0  0  0  0  0  0  0  0  0
   -3.1860    1.6230  -20.9052 C   0  0  0  0  0  0  0  0  0  0  0  0
   -3.8841    1.0709  -22.0047 C   0  0  0  0  0  0  0  0  0  0  0  0
   -4.9784    0.2671  -21.8048 C   0  0  0  0  0  0  0  0  0  0  0  0
   -5.4473   -0.0113  -20.4878 C   0  0  0  0  0  0  0  0  0  0  0  0
   -5.4860   -0.1545  -22.6706 H   0  0  0  0  0  0  0  0  0  0  0  0
   -3.5610    1.2905  -23.0189 H   0  0  0  0  0  0  0  0  0  0  0  0
   -2.3275    2.2665  -21.0838 H   0  0  0  0  0  0  0  0  0  0  0  0
   -3.0747    1.7657  -18.7712 H   0  0  0  0  0  0  0  0  0  0  0  0
   -4.6289    0.6170  -17.2241 H   0  0  0  0  0  0  0  0  0  0  0  0
   -7.7443   -1.6874  -18.6041 H   0  0  0  0  0  0  0  0  0  0  0  0
   -7.2571   -2.7114  -21.6273 C   0  0  0  0  0  0  0  0  0  0  0  0
   -6.5491   -3.5622  -21.1451 O   0  0  0  0  0  0  0  0  0  0  0  0
   -8.0618   -2.7870  -22.7614 N   0  0  0  0  0  0  0  0  0  0  0  0
   -9.2792   -0.6912  -24.9816 H   0  0  0  0  0  0  0  0  0  0  0  0
   -9.9653   -3.2779  -24.4630 H   0  0  0  0  0  0  0  0  0  0  0  0
   -8.9250   -3.1973  -25.9280 H   0  0  0  0  0  0  0  0  0  0  0  0
   -7.7007   -4.5529  -23.9042 H   0  0  0  0  0  0  0  0  0  0  0  0
   -5.7892   -2.6297  -24.0598 H   0  0  0  0  0  0  0  0  0  0  0  0
   -6.2956   -3.2679  -25.6442 H   0  0  0  0  0  0  0  0  0  0  0  0
   -6.4885    1.6571  -25.9044 H   0  0  0  0  0  0  0  0  0  0  0  0
   -7.7257    1.2559  -24.6713 H   0  0  0  0  0  0  0  0  0  0  0  0
   -8.0201    0.8639  -26.3673 H   0  0  0  0  0  0  0  0  0  0  0  0
  1  2  1  0
  2  3  2  0
  2  4  1  0
  4  5  1  0
  5  6  1  0
  6  7  1  0
  7  8  1  0
  8  9  1  0
  9 10  2  0
 10 11  1  0
 10 12  1  0
 12 13  1  0
 13 14  2  0
 14 15  1  0
 15 16  2  0
 16 17  1  0
 17 18  2  0
 18 19  1  0
 19 20  2  0
 20 21  1  0
 21 22  2  0
 21 23  1  0
 20 24  1  0
 19 25  1  0
 18 26  1  0
 16 27  1  0
 14 28  1  0
 12 29  1  0
 29 30  2  0
 29 31  1  0
  8 32  1  1
  7 33  1  0
  7 34  1  0
  6 35  1  1
  5 36  1  0
  5 37  1  0
  1 38  1  0
  1 39  1  0
  1 40  1  0
  8  4  1  0
 31  9  1  0
 31  6  1  0
 22 13  1  0
 22 17  1  0
M  CHG  1  11  -1
M  END
>  <cnnaffinities>  (1) 
[5.32899, 5.36626, 5.29928, 5.31956, 5.46173]

>  <score>  (1) 
5.32899

>  <index>  (1) 
39

>  <Smiles>  (1) 
C(C(=O)N1C([C@@]2(C([C@]1(c1c([O-])n(c3c(nc(c4c(c(c(c(c34)[H])[H])[H])[H])[H])[H])c(=O)n21)[H])([H])[H])[H])([H])[H])([H])([H])[H]

>  <h>  (1) 
<NA>

>  <Training>  (1) 
True

>  <Success>  (1) 
True

>  <enamine_searched>  (1) 
False

>  <enamine_id>  (1) 
nan

$$$$
