
     RDKit          3D

 55 60  0  0  0  0  0  0  0  0999 V2000
  -10.2170   -2.9587  -22.0673 C   0  0  0  0  0  0  0  0  0  0  0  0
   -9.1453   -2.0204  -22.6441 C   0  0  1  0  0  0  0  0  0  0  0  0
   -8.6803   -1.0107  -21.5695 C   0  0  0  0  0  0  0  0  0  0  0  0
   -7.3625   -1.4547  -21.1965 N   0  0  0  0  0  0  0  0  0  0  0  0
   -6.5823   -0.8509  -20.1832 C   0  0  0  0  0  0  0  0  0  0  0  0
   -6.9192   -1.0519  -18.8706 C   0  0  0  0  0  0  0  0  0  0  0  0
   -6.2427   -0.5430  -17.8118 N   0  0  0  0  0  0  0  0  0  0  0  0
   -5.1963    0.2038  -18.0833 C   0  0  0  0  0  0  0  0  0  0  0  0
   -4.7501    0.5119  -19.4010 C   0  0  0  0  0  0  0  0  0  0  0  0
   -3.6237    1.3467  -19.6273 C   0  0  0  0  0  0  0  0  0  0  0  0
   -3.2355    1.6570  -20.9003 C   0  0  0  0  0  0  0  0  0  0  0  0
   -3.9550    1.1501  -22.0074 C   0  0  0  0  0  0  0  0  0  0  0  0
   -5.0439    0.3361  -21.8207 C   0  0  0  0  0  0  0  0  0  0  0  0
   -5.4629   -0.0155  -20.5007 C   0  0  0  0  0  0  0  0  0  0  0  0
   -5.5868   -0.0465  -22.6870 H   0  0  0  0  0  0  0  0  0  0  0  0
   -3.6424    1.4157  -23.0134 H   0  0  0  0  0  0  0  0  0  0  0  0
   -2.3809    2.3061  -21.0708 H   0  0  0  0  0  0  0  0  0  0  0  0
   -3.0935    1.7430  -18.7652 H   0  0  0  0  0  0  0  0  0  0  0  0
   -4.6447    0.6130  -17.2366 H   0  0  0  0  0  0  0  0  0  0  0  0
   -7.7758   -1.6819  -18.6332 H   0  0  0  0  0  0  0  0  0  0  0  0
   -6.8340   -2.4156  -22.0215 C   0  0  0  0  0  0  0  0  0  0  0  0
   -5.7381   -2.9041  -21.8656 O   0  0  0  0  0  0  0  0  0  0  0  0
   -7.8446   -2.7099  -23.1529 C   0  0  1  0  0  0  0  0  0  0  0  0
   -7.9878   -4.2279  -23.3507 C   0  0  0  0  0  0  0  0  0  0  0  0
   -6.7555   -4.8107  -23.8673 N   0  0  0  0  0  0  0  0  0  0  0  0
   -6.2893   -6.1080  -23.3700 C   0  0  0  0  0  0  0  0  0  0  0  0
   -5.1543   -6.0537  -22.3844 C   0  0  0  0  0  0  0  0  0  0  0  0
   -5.3109   -5.9998  -20.8338 C   0  0  0  0  0  0  0  0  0  0  0  0
   -5.3113   -6.0000  -20.8340 N   0  0  0  0  0  0  0  0  0  0  0  0
   -2.9250   -5.8989  -22.4335 N   0  0  0  0  0  0  0  0  0  0  0  0
   -4.0213   -5.9798  -23.1004 N   0  0  0  0  0  0  0  0  0  0  0  0
   -2.2225   -5.7768  -23.1520 H   0  0  0  0  0  0  0  0  0  0  0  0
   -6.4704   -6.1131  -20.8927 H   0  0  0  0  0  0  0  0  0  0  0  0
   -5.8759   -6.6155  -24.2593 H   0  0  0  0  0  0  0  0  0  0  0  0
   -7.1752   -6.6602  -23.0393 H   0  0  0  0  0  0  0  0  0  0  0  0
   -6.2147   -4.3036  -25.0307 C   0  0  0  0  0  0  0  0  0  0  0  0
   -5.4955   -4.9642  -25.7666 O   0  0  0  0  0  0  0  0  0  0  0  0
   -6.5654   -2.8829  -25.3381 C   0  0  0  0  0  0  0  0  0  0  0  0
   -6.0649   -2.3300  -26.5176 C   0  0  0  0  0  0  0  0  0  0  0  0
   -6.2843   -1.0015  -26.8335 C   0  0  0  0  0  0  0  0  0  0  0  0
   -7.0126   -0.2304  -25.9313 C   0  0  0  0  0  0  0  0  0  0  0  0
   -7.2263    1.0690  -26.2167 F   0  0  0  0  0  0  0  0  0  0  0  0
   -7.5246   -0.7510  -24.7551 C   0  0  0  0  0  0  0  0  0  0  0  0
   -7.3202   -2.1077  -24.4518 C   0  0  0  0  0  0  0  0  0  0  0  0
   -8.0835   -0.0805  -24.1049 H   0  0  0  0  0  0  0  0  0  0  0  0
   -5.9049   -0.5388  -27.7438 H   0  0  0  0  0  0  0  0  0  0  0  0
   -5.4926   -2.9680  -27.1824 H   0  0  0  0  0  0  0  0  0  0  0  0
   -8.8232   -4.4167  -24.0376 H   0  0  0  0  0  0  0  0  0  0  0  0
   -8.2275   -4.6961  -22.3973 H   0  0  0  0  0  0  0  0  0  0  0  0
   -8.6637    0.0240  -21.9356 H   0  0  0  0  0  0  0  0  0  0  0  0
   -9.3392   -1.0285  -20.7064 H   0  0  0  0  0  0  0  0  0  0  0  0
   -9.6213   -1.4920  -23.4774 H   0  0  0  0  0  0  0  0  0  0  0  0
  -11.0732   -2.3782  -21.7031 H   0  0  0  0  0  0  0  0  0  0  0  0
  -10.5934   -3.6510  -22.8263 H   0  0  0  0  0  0  0  0  0  0  0  0
   -9.8346   -3.5488  -21.2263 H   0  0  0  0  0  0  0  0  0  0  0  0
  1  2  1  0
  2  3  1  0
  3  4  1  0
  4  5  1  0
  5  6  2  0
  6  7  1  0
  7  8  2  0
  8  9  1  0
  9 10  2  0
 10 11  1  0
 11 12  2  0
 12 13  1  0
 13 14  2  0
 13 15  1  0
 12 16  1  0
 11 17  1  0
 10 18  1  0
  8 19  1  0
  6 20  1  0
  4 21  1  0
 21 22  2  0
 21 23  1  0
 23 24  1  6
 24 25  1  0
 25 26  1  0
 26 27  1  0
 27 28  1  0
 28 29  2  0
 29 30  1  0
 30 31  1  0
 30 32  1  0
 28 33  1  0
 26 34  1  0
 26 35  1  0
 25 36  1  0
 36 37  2  0
 36 38  1  0
 38 39  2  0
 39 40  1  0
 40 41  2  0
 41 42  1  0
 41 43  1  0
 43 44  2  0
 43 45  1  0
 40 46  1  0
 39 47  1  0
 24 48  1  0
 24 49  1  0
  3 50  1  0
  3 51  1  0
  2 52  1  6
  1 53  1  0
  1 54  1  0
  1 55  1  0
 23  2  1  0
 31 27  2  0
 44 38  1  0
 14  5  1  0
 44 23  1  0
 14  9  1  0
M  END
>  <cnnaffinities>  (1) 
[5.75405]

>  <score>  (1) 
5.75405

>  <index>  (1) 
26

>  <Smiles>  (1) 
C([C@]1(C(N(c2c(nc(c3c(c(c(c(c23)[H])[H])[H])[H])[H])[H])C(=O)[C@]21C(N(C(c1c(nn(n1)[H])[H])([H])[H])C(=O)c1c(c(c(F)c(c21)[H])[H])[H])([H])[H])([H])[H])[H])([H])([H])[H]

>  <h>  (1) 
<NA>

>  <Training>  (1) 
True

>  <Success>  (1) 
True

>  <enamine_searched>  (1) 
False

>  <enamine_id>  (1) 
nan

$$$$
