
     RDKit          3D

 55 60  0  0  0  0  0  0  0  0999 V2000
   -7.8947   -3.6658  -24.0483 C   0  0  0  0  0  0  0  0  0  0  0  0
   -8.3027   -2.8637  -22.8051 C   0  0  1  0  0  0  0  0  0  0  0  0
   -7.1158   -2.6450  -21.8411 C   0  0  0  0  0  0  0  0  0  0  0  0
   -7.4108   -1.3818  -21.1939 N   0  0  0  0  0  0  0  0  0  0  0  0
   -6.6036   -0.8089  -20.1710 C   0  0  0  0  0  0  0  0  0  0  0  0
   -6.9037   -1.0475  -18.8560 C   0  0  0  0  0  0  0  0  0  0  0  0
   -6.2038   -0.5526  -17.8027 N   0  0  0  0  0  0  0  0  0  0  0  0
   -5.1694    0.2090  -18.0717 C   0  0  0  0  0  0  0  0  0  0  0  0
   -4.7324    0.5317  -19.3896 C   0  0  0  0  0  0  0  0  0  0  0  0
   -3.6032    1.3631  -19.6345 C   0  0  0  0  0  0  0  0  0  0  0  0
   -3.2051    1.6376  -20.9129 C   0  0  0  0  0  0  0  0  0  0  0  0
   -3.9090    1.0847  -22.0063 C   0  0  0  0  0  0  0  0  0  0  0  0
   -5.0028    0.2779  -21.7956 C   0  0  0  0  0  0  0  0  0  0  0  0
   -5.4587   -0.0030  -20.4797 C   0  0  0  0  0  0  0  0  0  0  0  0
   -5.5556   -0.1064  -22.6489 H   0  0  0  0  0  0  0  0  0  0  0  0
   -3.6084    1.3278  -23.0204 H   0  0  0  0  0  0  0  0  0  0  0  0
   -2.3538    2.2882  -21.0969 H   0  0  0  0  0  0  0  0  0  0  0  0
   -3.0721    1.7778  -18.7810 H   0  0  0  0  0  0  0  0  0  0  0  0
   -4.6191    0.6142  -17.2209 H   0  0  0  0  0  0  0  0  0  0  0  0
   -7.7530   -1.6748  -18.5963 H   0  0  0  0  0  0  0  0  0  0  0  0
   -8.3753   -0.6326  -21.8311 C   0  0  0  0  0  0  0  0  0  0  0  0
   -8.7125    0.4734  -21.4701 O   0  0  0  0  0  0  0  0  0  0  0  0
   -8.9225   -1.4448  -23.0390 C   0  0  1  0  0  0  0  0  0  0  0  0
   -8.4174   -0.8253  -24.3698 C   0  0  0  0  0  0  0  0  0  0  0  0
   -9.0361    0.4537  -24.6505 N   0  0  0  0  0  0  0  0  0  0  0  0
   -8.2302    1.6143  -25.0043 C   0  0  0  0  0  0  0  0  0  0  0  0
   -7.9775    2.5281  -23.8351 C   0  0  0  0  0  0  0  0  0  0  0  0
   -6.7865    2.5706  -23.1684 N   0  0  0  0  0  0  0  0  0  0  0  0
   -7.0249    3.4374  -22.2025 C   0  0  0  0  0  0  0  0  0  0  0  0
   -8.2754    3.9191  -22.3168 N   0  0  0  0  0  0  0  0  0  0  0  0
   -8.9004    3.3380  -23.3599 N   0  0  0  0  0  0  0  0  0  0  0  0
   -8.7943    4.5122  -21.6858 H   0  0  0  0  0  0  0  0  0  0  0  0
   -6.3486    3.7248  -21.4123 H   0  0  0  0  0  0  0  0  0  0  0  0
   -7.2604    1.2731  -25.3772 H   0  0  0  0  0  0  0  0  0  0  0  0
   -8.7680    2.1565  -25.7896 H   0  0  0  0  0  0  0  0  0  0  0  0
  -10.3925    0.6154  -24.5872 C   0  0  0  0  0  0  0  0  0  0  0  0
  -10.9495    1.5802  -25.0934 O   0  0  0  0  0  0  0  0  0  0  0  0
  -11.1332   -0.4341  -23.8106 C   0  0  0  0  0  0  0  0  0  0  0  0
  -12.5287   -0.3767  -23.7878 C   0  0  0  0  0  0  0  0  0  0  0  0
  -13.2553   -1.2094  -22.9600 C   0  0  0  0  0  0  0  0  0  0  0  0
  -12.5575   -2.0779  -22.1298 C   0  0  0  0  0  0  0  0  0  0  0  0
  -13.2528   -2.8477  -21.2768 F   0  0  0  0  0  0  0  0  0  0  0  0
  -11.1814   -2.1656  -22.1393 C   0  0  0  0  0  0  0  0  0  0  0  0
  -10.4436   -1.3802  -23.0347 C   0  0  0  0  0  0  0  0  0  0  0  0
  -10.7118   -2.8250  -21.4173 H   0  0  0  0  0  0  0  0  0  0  0  0
  -14.3375   -1.1809  -22.9119 H   0  0  0  0  0  0  0  0  0  0  0  0
  -13.0217    0.3585  -24.4136 H   0  0  0  0  0  0  0  0  0  0  0  0
   -8.6203   -1.5282  -25.1937 H   0  0  0  0  0  0  0  0  0  0  0  0
   -7.3364   -0.6635  -24.2942 H   0  0  0  0  0  0  0  0  0  0  0  0
   -7.0253   -3.4443  -21.0967 H   0  0  0  0  0  0  0  0  0  0  0  0
   -6.1614   -2.6046  -22.3910 H   0  0  0  0  0  0  0  0  0  0  0  0
   -9.0625   -3.4403  -22.2730 H   0  0  0  0  0  0  0  0  0  0  0  0
   -7.0814   -3.1731  -24.5945 H   0  0  0  0  0  0  0  0  0  0  0  0
   -8.7287   -3.8001  -24.7459 H   0  0  0  0  0  0  0  0  0  0  0  0
   -7.5364   -4.6621  -23.7666 H   0  0  0  0  0  0  0  0  0  0  0  0
  1  2  1  0
  2  3  1  0
  3  4  1  0
  4  5  1  0
  5  6  2  0
  6  7  1  0
  7  8  2  0
  8  9  1  0
  9 10  2  0
 10 11  1  0
 11 12  2  0
 12 13  1  0
 13 14  2  0
 13 15  1  0
 12 16  1  0
 11 17  1  0
 10 18  1  0
  8 19  1  0
  6 20  1  0
  4 21  1  0
 21 22  2  0
 21 23  1  0
 23 24  1  6
 24 25  1  0
 25 26  1  0
 26 27  1  0
 27 28  1  0
 28 29  2  0
 29 30  1  0
 30 31  1  0
 30 32  1  0
 29 33  1  0
 26 34  1  0
 26 35  1  0
 25 36  1  0
 36 37  2  0
 36 38  1  0
 38 39  2  0
 39 40  1  0
 40 41  2  0
 41 42  1  0
 41 43  1  0
 43 44  2  0
 43 45  1  0
 40 46  1  0
 39 47  1  0
 24 48  1  0
 24 49  1  0
  3 50  1  0
  3 51  1  0
  2 52  1  1
  1 53  1  0
  1 54  1  0
  1 55  1  0
 23  2  1  0
 31 27  2  0
 44 38  1  0
 14  5  1  0
 44 23  1  0
 14  9  1  0
M  END
>  <cnnaffinities>  (1) 
[6.47789, 6.3372]

>  <score>  (1) 
6.47789

>  <index>  (1) 
64

>  <Smiles>  (1) 
C([C@]1(C(N(c2c(nc(c3c(c(c(c(c23)[H])[H])[H])[H])[H])[H])C(=O)[C@]21C(N(C(c1nc(n(n1)[H])[H])([H])[H])C(=O)c1c(c(c(F)c(c21)[H])[H])[H])([H])[H])([H])[H])[H])([H])([H])[H]

>  <h>  (1) 
<NA>

>  <Training>  (1) 
True

>  <Success>  (1) 
True

>  <enamine_searched>  (1) 
False

>  <enamine_id>  (1) 
nan

$$$$
