
     RDKit          3D

 67 72  0  0  0  0  0  0  0  0999 V2000
   -7.4058    3.4636  -21.9665 C   0  0  0  0  0  0  0  0  0  0  0  0
   -8.4587    2.8880  -22.7875 N   0  0  0  0  0  0  0  0  0  0  0  0
   -8.0885    2.1591  -23.8745 C   0  0  0  0  0  0  0  0  0  0  0  0
   -6.9107    1.9528  -24.1308 O   0  0  0  0  0  0  0  0  0  0  0  0
   -9.2032    1.5861  -24.7552 C   0  0  0  0  0  0  0  0  0  0  0  0
   -9.7692    0.3912  -24.1574 N   0  0  0  0  0  0  0  0  0  0  0  0
   -8.9391   -0.8029  -24.0631 C   0  0  0  0  0  0  0  0  0  0  0  0
   -9.2173   -1.6107  -22.7616 C   0  0  2  0  0  0  0  0  0  0  0  0
   -8.6661   -0.8019  -21.5545 C   0  0  0  0  0  0  0  0  0  0  0  0
   -9.1662    0.1715  -21.0277 O   0  0  0  0  0  0  0  0  0  0  0  0
   -7.4630   -1.3497  -21.1695 N   0  0  0  0  0  0  0  0  0  0  0  0
   -6.6636   -0.7743  -20.1525 C   0  0  0  0  0  0  0  0  0  0  0  0
   -6.9591   -1.0225  -18.8373 C   0  0  0  0  0  0  0  0  0  0  0  0
   -6.2427   -0.5578  -17.7835 N   0  0  0  0  0  0  0  0  0  0  0  0
   -5.1969    0.1879  -18.0568 C   0  0  0  0  0  0  0  0  0  0  0  0
   -4.7703    0.5211  -19.3747 C   0  0  0  0  0  0  0  0  0  0  0  0
   -3.6383    1.3482  -19.6133 C   0  0  0  0  0  0  0  0  0  0  0  0
   -3.2544    1.6494  -20.8915 C   0  0  0  0  0  0  0  0  0  0  0  0
   -3.9867    1.1453  -21.9904 C   0  0  0  0  0  0  0  0  0  0  0  0
   -5.0975    0.3600  -21.7878 C   0  0  0  0  0  0  0  0  0  0  0  0
   -5.5184    0.0238  -20.4698 C   0  0  0  0  0  0  0  0  0  0  0  0
   -5.6733    0.0166  -22.6432 H   0  0  0  0  0  0  0  0  0  0  0  0
   -3.6756    1.3939  -23.0017 H   0  0  0  0  0  0  0  0  0  0  0  0
   -2.3931    2.2889  -21.0698 H   0  0  0  0  0  0  0  0  0  0  0  0
   -3.0997    1.7419  -18.7546 H   0  0  0  0  0  0  0  0  0  0  0  0
   -4.6313    0.5792  -17.2099 H   0  0  0  0  0  0  0  0  0  0  0  0
   -7.8144   -1.6488  -18.5947 H   0  0  0  0  0  0  0  0  0  0  0  0
   -7.0455   -2.4900  -21.9505 C   0  0  0  0  0  0  0  0  0  0  0  0
   -8.3320   -2.9039  -22.6803 C   0  0  2  0  0  0  0  0  0  0  0  0
   -7.9620   -3.6192  -23.9827 C   0  0  0  0  0  0  0  0  0  0  0  0
   -9.1413   -4.0706  -24.6619 N   0  0  0  0  0  0  0  0  0  0  0  0
   -9.1185   -4.6157  -25.9137 C   0  0  0  0  0  0  0  0  0  0  0  0
   -7.6794   -4.7248  -26.8889 S   0  0  0  0  0  0  0  0  0  0  0  0
   -8.6584   -5.4365  -28.1477 C   0  0  0  0  0  0  0  0  0  0  0  0
   -9.9050   -5.5979  -27.8568 N   0  0  0  0  0  0  0  0  0  0  0  0
  -10.1842   -5.1401  -26.5846 C   0  0  0  0  0  0  0  0  0  0  0  0
  -11.5414   -5.2769  -25.9757 C   0  0  0  0  0  0  0  0  0  0  0  0
  -11.9640   -4.2841  -25.7670 H   0  0  0  0  0  0  0  0  0  0  0  0
  -11.4947   -5.8081  -25.0163 H   0  0  0  0  0  0  0  0  0  0  0  0
  -12.2049   -5.8335  -26.6414 H   0  0  0  0  0  0  0  0  0  0  0  0
   -8.2067   -5.7148  -29.0970 H   0  0  0  0  0  0  0  0  0  0  0  0
  -10.0422   -3.9554  -24.2163 H   0  0  0  0  0  0  0  0  0  0  0  0
   -7.3054   -4.4772  -23.7559 H   0  0  0  0  0  0  0  0  0  0  0  0
   -7.3941   -2.9384  -24.6393 H   0  0  0  0  0  0  0  0  0  0  0  0
   -8.8591   -3.6145  -22.0315 H   0  0  0  0  0  0  0  0  0  0  0  0
   -6.6475   -3.2878  -21.3117 H   0  0  0  0  0  0  0  0  0  0  0  0
   -6.2428   -2.2223  -22.6571 H   0  0  0  0  0  0  0  0  0  0  0  0
  -10.7290   -1.7954  -22.6263 C   0  0  0  0  0  0  0  0  0  0  0  0
  -11.2983   -2.7903  -21.8139 C   0  0  0  0  0  0  0  0  0  0  0  0
  -12.6705   -2.8216  -21.6030 C   0  0  0  0  0  0  0  0  0  0  0  0
  -13.3790   -3.8904  -20.4289 Cl  0  0  0  0  0  0  0  0  0  0  0  0
  -13.5320   -1.9359  -22.2451 C   0  0  0  0  0  0  0  0  0  0  0  0
  -12.9848   -0.9594  -23.0438 C   0  0  0  0  0  0  0  0  0  0  0  0
  -11.6041   -0.8504  -23.1864 C   0  0  0  0  0  0  0  0  0  0  0  0
  -11.1080    0.3700  -23.8965 C   0  0  0  0  0  0  0  0  0  0  0  0
  -11.8603    1.2851  -24.2008 O   0  0  0  0  0  0  0  0  0  0  0  0
  -13.6079   -0.2342  -23.5517 H   0  0  0  0  0  0  0  0  0  0  0  0
  -14.6017   -1.9885  -22.0753 H   0  0  0  0  0  0  0  0  0  0  0  0
  -10.6827   -3.5131  -21.2893 H   0  0  0  0  0  0  0  0  0  0  0  0
   -9.1091   -1.4400  -24.9435 H   0  0  0  0  0  0  0  0  0  0  0  0
   -7.8952   -0.4750  -24.0689 H   0  0  0  0  0  0  0  0  0  0  0  0
  -10.0292    2.2857  -24.9001 H   0  0  0  0  0  0  0  0  0  0  0  0
   -8.7794    1.3678  -25.7432 H   0  0  0  0  0  0  0  0  0  0  0  0
   -9.3851    2.7993  -22.3922 H   0  0  0  0  0  0  0  0  0  0  0  0
   -6.7416    4.0839  -22.5746 H   0  0  0  0  0  0  0  0  0  0  0  0
   -6.7879    2.6641  -21.5288 H   0  0  0  0  0  0  0  0  0  0  0  0
   -7.8621    4.1078  -21.2119 H   0  0  0  0  0  0  0  0  0  0  0  0
  1  2  1  0
  2  3  1  0
  3  4  2  0
  3  5  1  0
  5  6  1  0
  6  7  1  0
  8  7  1  6
  8  9  1  0
  9 10  2  0
  9 11  1  0
 11 12  1  0
 12 13  2  0
 13 14  1  0
 14 15  2  0
 15 16  1  0
 16 17  2  0
 17 18  1  0
 18 19  2  0
 19 20  1  0
 20 21  2  0
 20 22  1  0
 19 23  1  0
 18 24  1  0
 17 25  1  0
 15 26  1  0
 13 27  1  0
 11 28  1  0
 28 29  1  0
 29 30  1  0
 30 31  1  0
 31 32  1  0
 32 33  1  0
 33 34  1  0
 34 35  2  0
 35 36  1  0
 36 37  1  0
 37 38  1  0
 37 39  1  0
 37 40  1  0
 34 41  1  0
 31 42  1  0
 30 43  1  0
 30 44  1  0
 29 45  1  1
 28 46  1  0
 28 47  1  0
  8 48  1  0
 48 49  2  0
 49 50  1  0
 50 51  1  0
 50 52  2  0
 52 53  1  0
 53 54  2  0
 54 55  1  0
 55 56  2  0
 53 57  1  0
 52 58  1  0
 49 59  1  0
  7 60  1  0
  7 61  1  0
  5 62  1  0
  5 63  1  0
  2 64  1  0
  1 65  1  0
  1 66  1  0
  1 67  1  0
 55  6  1  0
 29  8  1  0
 36 32  2  0
 54 48  1  0
 21 12  1  0
 21 16  1  0
M  END
>  <cnnaffinities>  (1) 
[6.81526, 6.84268, 7.20198, 7.04722]

>  <score>  (1) 
6.81526

>  <index>  (1) 
43

>  <Smiles>  (1) 
C(N(C(=O)C(N1C([C@@]2(C(=O)N(c3c(nc(c4c(c(c(c(c34)[H])[H])[H])[H])[H])[H])C([C@@]2(C(N(c2sc(nc2C([H])([H])[H])[H])[H])([H])[H])[H])([H])[H])c2c(c(Cl)c(c(c2C1=O)[H])[H])[H])([H])[H])([H])[H])[H])([H])([H])[H]

>  <h>  (1) 
<NA>

>  <Training>  (1) 
True

>  <Success>  (1) 
True

>  <enamine_searched>  (1) 
False

>  <enamine_id>  (1) 
nan

$$$$
