
     RDKit          3D

 69 74  0  0  0  0  0  0  0  0999 V2000
   -6.7894    3.3596  -23.3746 C   0  0  0  0  0  0  0  0  0  0  0  0
   -7.5162    2.5493  -24.3304 N   0  0  0  0  0  0  0  0  0  0  0  0
   -6.9167    1.4935  -24.9196 C   0  0  0  0  0  0  0  0  0  0  0  0
   -5.7310    1.2237  -24.7621 O   0  0  0  0  0  0  0  0  0  0  0  0
   -7.8415    0.6303  -25.7893 C   0  0  0  0  0  0  0  0  0  0  0  0
   -8.8451   -0.0424  -24.9773 N   0  0  0  0  0  0  0  0  0  0  0  0
   -8.4939   -1.3208  -24.3714 C   0  0  0  0  0  0  0  0  0  0  0  0
   -9.0862   -1.4842  -22.9372 C   0  0  2  0  0  0  0  0  0  0  0  0
   -8.3118   -0.5461  -21.9805 C   0  0  0  0  0  0  0  0  0  0  0  0
   -8.4077    0.6592  -21.8921 O   0  0  0  0  0  0  0  0  0  0  0  0
   -7.4534   -1.3087  -21.2215 N   0  0  0  0  0  0  0  0  0  0  0  0
   -6.6527   -0.7717  -20.1923 C   0  0  0  0  0  0  0  0  0  0  0  0
   -6.9379   -1.0671  -18.8815 C   0  0  0  0  0  0  0  0  0  0  0  0
   -6.2510   -0.5878  -17.8170 N   0  0  0  0  0  0  0  0  0  0  0  0
   -5.2208    0.1840  -18.0819 C   0  0  0  0  0  0  0  0  0  0  0  0
   -4.7808    0.5170  -19.3957 C   0  0  0  0  0  0  0  0  0  0  0  0
   -3.6399    1.3348  -19.6186 C   0  0  0  0  0  0  0  0  0  0  0  0
   -3.2230    1.6169  -20.8914 C   0  0  0  0  0  0  0  0  0  0  0  0
   -3.9270    1.0972  -22.0027 C   0  0  0  0  0  0  0  0  0  0  0  0
   -5.0387    0.3122  -21.8162 C   0  0  0  0  0  0  0  0  0  0  0  0
   -5.5038    0.0159  -20.5010 C   0  0  0  0  0  0  0  0  0  0  0  0
   -5.5656   -0.0633  -22.6897 H   0  0  0  0  0  0  0  0  0  0  0  0
   -3.6149    1.3392  -23.0156 H   0  0  0  0  0  0  0  0  0  0  0  0
   -2.3545    2.2498  -21.0556 H   0  0  0  0  0  0  0  0  0  0  0  0
   -3.1167    1.7283  -18.7513 H   0  0  0  0  0  0  0  0  0  0  0  0
   -4.6673    0.5809  -17.2321 H   0  0  0  0  0  0  0  0  0  0  0  0
   -7.7914   -1.7059  -18.6523 H   0  0  0  0  0  0  0  0  0  0  0  0
   -7.4521   -2.7118  -21.5509 C   0  0  0  0  0  0  0  0  0  0  0  0
   -8.7595   -2.8719  -22.3200 C   0  0  2  0  0  0  0  0  0  0  0  0
   -8.7482   -4.0633  -23.2618 C   0  0  0  0  0  0  0  0  0  0  0  0
  -10.0268   -4.1970  -23.9105 N   0  0  0  0  0  0  0  0  0  0  0  0
  -10.1987   -5.0843  -24.9127 C   0  0  0  0  0  0  0  0  0  0  0  0
  -11.4210   -5.1535  -25.6035 C   0  0  0  0  0  0  0  0  0  0  0  0
  -11.4660   -6.0371  -26.6551 C   0  0  0  0  0  0  0  0  0  0  0  0
  -10.4409   -6.8252  -26.9946 N   0  0  0  0  0  0  0  0  0  0  0  0
   -9.3534   -6.7207  -26.2318 C   0  0  0  0  0  0  0  0  0  0  0  0
   -8.2473   -7.6688  -26.5573 C   0  0  0  0  0  0  0  0  0  0  0  0
   -7.6388   -7.8846  -25.6810 H   0  0  0  0  0  0  0  0  0  0  0  0
   -7.5913   -7.2855  -27.3436 H   0  0  0  0  0  0  0  0  0  0  0  0
   -8.7132   -8.5773  -26.9310 H   0  0  0  0  0  0  0  0  0  0  0  0
   -9.1569   -5.8676  -25.2220 N   0  0  0  0  0  0  0  0  0  0  0  0
  -12.3631   -6.1125  -27.2668 H   0  0  0  0  0  0  0  0  0  0  0  0
  -12.2732   -4.5464  -25.3089 H   0  0  0  0  0  0  0  0  0  0  0  0
  -10.8121   -3.6202  -23.6423 H   0  0  0  0  0  0  0  0  0  0  0  0
   -7.9661   -3.9392  -24.0242 H   0  0  0  0  0  0  0  0  0  0  0  0
   -8.5033   -4.9917  -22.7287 H   0  0  0  0  0  0  0  0  0  0  0  0
   -9.5195   -3.0470  -21.5595 H   0  0  0  0  0  0  0  0  0  0  0  0
   -6.5777   -2.9790  -22.1605 H   0  0  0  0  0  0  0  0  0  0  0  0
   -7.4233   -3.3184  -20.6410 H   0  0  0  0  0  0  0  0  0  0  0  0
  -10.5687   -1.1439  -22.9794 C   0  0  0  0  0  0  0  0  0  0  0  0
  -11.5402   -1.8005  -22.2015 C   0  0  0  0  0  0  0  0  0  0  0  0
  -12.8683   -1.4211  -22.2825 C   0  0  0  0  0  0  0  0  0  0  0  0
  -14.0614   -2.2751  -21.3345 Cl  0  0  0  0  0  0  0  0  0  0  0  0
  -13.2638   -0.3471  -23.0731 C   0  0  0  0  0  0  0  0  0  0  0  0
  -12.3080    0.3485  -23.7874 C   0  0  0  0  0  0  0  0  0  0  0  0
  -10.9853   -0.0892  -23.8050 C   0  0  0  0  0  0  0  0  0  0  0  0
  -10.0326    0.5898  -24.7472 C   0  0  0  0  0  0  0  0  0  0  0  0
  -10.3179    1.6655  -25.2727 O   0  0  0  0  0  0  0  0  0  0  0  0
  -12.5698    1.2304  -24.3624 H   0  0  0  0  0  0  0  0  0  0  0  0
  -14.3097   -0.0865  -23.1262 H   0  0  0  0  0  0  0  0  0  0  0  0
  -11.3017   -2.5940  -21.4993 H   0  0  0  0  0  0  0  0  0  0  0  0
   -7.3995   -1.3821  -24.3156 H   0  0  0  0  0  0  0  0  0  0  0  0
   -8.8489   -2.1341  -25.0183 H   0  0  0  0  0  0  0  0  0  0  0  0
   -7.2193   -0.0949  -26.3201 H   0  0  0  0  0  0  0  0  0  0  0  0
   -8.3721    1.2440  -26.5231 H   0  0  0  0  0  0  0  0  0  0  0  0
   -8.5249    2.6304  -24.3816 H   0  0  0  0  0  0  0  0  0  0  0  0
   -7.4539    4.1332  -22.9846 H   0  0  0  0  0  0  0  0  0  0  0  0
   -5.9266    3.8304  -23.8537 H   0  0  0  0  0  0  0  0  0  0  0  0
   -6.4124    2.7489  -22.5437 H   0  0  0  0  0  0  0  0  0  0  0  0
  1  2  1  0
  2  3  1  0
  3  4  2  0
  3  5  1  0
  5  6  1  0
  6  7  1  0
  8  7  1  6
  8  9  1  0
  9 10  2  0
  9 11  1  0
 11 12  1  0
 12 13  2  0
 13 14  1  0
 14 15  2  0
 15 16  1  0
 16 17  2  0
 17 18  1  0
 18 19  2  0
 19 20  1  0
 20 21  2  0
 20 22  1  0
 19 23  1  0
 18 24  1  0
 17 25  1  0
 15 26  1  0
 13 27  1  0
 11 28  1  0
 28 29  1  0
 29 30  1  0
 30 31  1  0
 31 32  1  0
 32 33  2  0
 33 34  1  0
 34 35  2  0
 35 36  1  0
 36 37  1  0
 37 38  1  0
 37 39  1  0
 37 40  1  0
 36 41  2  0
 34 42  1  0
 33 43  1  0
 31 44  1  0
 30 45  1  0
 30 46  1  0
 29 47  1  1
 28 48  1  0
 28 49  1  0
  8 50  1  0
 50 51  2  0
 51 52  1  0
 52 53  1  0
 52 54  2  0
 54 55  1  0
 55 56  2  0
 56 57  1  0
 57 58  2  0
 55 59  1  0
 54 60  1  0
 51 61  1  0
  7 62  1  0
  7 63  1  0
  5 64  1  0
  5 65  1  0
  2 66  1  0
  1 67  1  0
  1 68  1  0
  1 69  1  0
 57  6  1  0
 29  8  1  0
 41 32  1  0
 56 50  1  0
 21 12  1  0
 21 16  1  0
M  END
>  <cnnaffinities>  (1) 
[6.79591, 7.03987, 6.67978]

>  <score>  (1) 
6.79591

>  <index>  (1) 
13

>  <Smiles>  (1) 
C(N(C(=O)C(N1C([C@@]2(C(=O)N(c3c(nc(c4c(c(c(c(c34)[H])[H])[H])[H])[H])[H])C([C@@]2(C(N(c2c(c(nc(C([H])([H])[H])n2)[H])[H])[H])([H])[H])[H])([H])[H])c2c(c(Cl)c(c(c2C1=O)[H])[H])[H])([H])[H])([H])[H])[H])([H])([H])[H]

>  <h>  (1) 
<NA>

>  <Training>  (1) 
True

>  <Success>  (1) 
True

>  <enamine_searched>  (1) 
False

>  <enamine_id>  (1) 
nan

$$$$
