
     RDKit          3D

 58 61  0  0  0  0  0  0  0  0999 V2000
   -7.4111   -4.0793  -23.5377 C   0  0  0  0  0  0  0  0  0  0  0  0
   -6.9196   -3.3772  -22.5174 C   0  0  0  0  0  0  0  0  0  0  0  0
   -7.6116   -2.8257  -21.3000 C   0  0  0  0  0  0  0  0  0  0  0  0
   -7.3851   -1.3772  -21.2357 N   0  0  0  0  0  0  0  0  0  0  0  0
   -8.1743   -0.4396  -21.8983 C   0  0  0  0  0  0  0  0  0  0  0  0
   -8.2554    0.7003  -21.4822 O   0  0  0  0  0  0  0  0  0  0  0  0
   -8.8947   -0.9029  -23.1757 C   0  0  2  0  0  0  0  0  0  0  0  0
   -8.0404   -0.6951  -24.4473 C   0  0  0  0  0  0  0  0  0  0  0  0
   -7.9512    0.7186  -24.8075 N   0  0  0  0  0  0  0  0  0  0  0  0
   -6.7024    1.2700  -25.3116 C   0  0  0  0  0  0  0  0  0  0  0  0
   -6.5992    1.3285  -26.8416 C   0  0  0  0  0  0  0  0  0  0  0  0
   -6.6557    2.3753  -27.4661 O   0  0  0  0  0  0  0  0  0  0  0  0
   -6.4255    0.1336  -27.4661 N   0  0  0  0  0  0  0  0  0  0  0  0
   -6.3832    0.0939  -28.9152 C   0  0  0  0  0  0  0  0  0  0  0  0
   -5.5837    0.7386  -29.2924 H   0  0  0  0  0  0  0  0  0  0  0  0
   -7.3311    0.4464  -29.3353 H   0  0  0  0  0  0  0  0  0  0  0  0
   -6.2060   -0.9296  -29.2506 H   0  0  0  0  0  0  0  0  0  0  0  0
   -6.3010   -0.7206  -26.9432 H   0  0  0  0  0  0  0  0  0  0  0  0
   -6.6122    2.2917  -24.9410 H   0  0  0  0  0  0  0  0  0  0  0  0
   -5.8743    0.6705  -24.9071 H   0  0  0  0  0  0  0  0  0  0  0  0
   -9.0334    1.5626  -24.7431 C   0  0  0  0  0  0  0  0  0  0  0  0
   -9.0133    2.6958  -25.1956 O   0  0  0  0  0  0  0  0  0  0  0  0
  -10.2501    1.0135  -24.0688 C   0  0  0  0  0  0  0  0  0  0  0  0
  -11.4393    1.7327  -24.1693 C   0  0  0  0  0  0  0  0  0  0  0  0
  -12.6041    1.2369  -23.6155 C   0  0  0  0  0  0  0  0  0  0  0  0
  -12.5603    0.0072  -22.9564 C   0  0  0  0  0  0  0  0  0  0  0  0
  -14.0392   -0.7013  -22.3831 Cl  0  0  0  0  0  0  0  0  0  0  0  0
  -11.3666   -0.6753  -22.7849 C   0  0  0  0  0  0  0  0  0  0  0  0
  -10.1961   -0.1738  -23.3492 C   0  0  0  0  0  0  0  0  0  0  0  0
  -11.3403   -1.5960  -22.2065 H   0  0  0  0  0  0  0  0  0  0  0  0
  -13.5373    1.7877  -23.6868 H   0  0  0  0  0  0  0  0  0  0  0  0
  -11.4190    2.6733  -24.7076 H   0  0  0  0  0  0  0  0  0  0  0  0
   -8.5056   -1.2608  -25.2688 H   0  0  0  0  0  0  0  0  0  0  0  0
   -7.0321   -1.1046  -24.3082 H   0  0  0  0  0  0  0  0  0  0  0  0
   -9.1136   -1.9704  -23.0879 H   0  0  0  0  0  0  0  0  0  0  0  0
   -6.5649   -0.8609  -20.1989 C   0  0  0  0  0  0  0  0  0  0  0  0
   -6.9099   -1.0724  -18.8884 C   0  0  0  0  0  0  0  0  0  0  0  0
   -6.2558   -0.5615  -17.8218 N   0  0  0  0  0  0  0  0  0  0  0  0
   -5.2072    0.1885  -18.0898 C   0  0  0  0  0  0  0  0  0  0  0  0
   -4.7356    0.4830  -19.4011 C   0  0  0  0  0  0  0  0  0  0  0  0
   -3.6230    1.3322  -19.6358 C   0  0  0  0  0  0  0  0  0  0  0  0
   -3.2195    1.6184  -20.9126 C   0  0  0  0  0  0  0  0  0  0  0  0
   -3.8952    1.0569  -22.0174 C   0  0  0  0  0  0  0  0  0  0  0  0
   -4.9562    0.2092  -21.8223 C   0  0  0  0  0  0  0  0  0  0  0  0
   -5.4226   -0.0654  -20.5041 C   0  0  0  0  0  0  0  0  0  0  0  0
   -5.4080   -0.3027  -22.6750 H   0  0  0  0  0  0  0  0  0  0  0  0
   -3.5670    1.2994  -23.0261 H   0  0  0  0  0  0  0  0  0  0  0  0
   -2.3718    2.2749  -21.0826 H   0  0  0  0  0  0  0  0  0  0  0  0
   -3.1153    1.7633  -18.7770 H   0  0  0  0  0  0  0  0  0  0  0  0
   -4.6775    0.6105  -17.2374 H   0  0  0  0  0  0  0  0  0  0  0  0
   -7.7892   -1.6814  -18.6769 H   0  0  0  0  0  0  0  0  0  0  0  0
   -8.6904   -3.0478  -21.2730 H   0  0  0  0  0  0  0  0  0  0  0  0
   -7.1120   -3.2450  -20.4211 H   0  0  0  0  0  0  0  0  0  0  0  0
   -5.4809   -2.8556  -22.4955 C   0  0  0  0  0  0  0  0  0  0  0  0
   -5.0992   -2.3076  -23.5560 O   0  0  0  0  0  0  0  0  0  0  0  0
   -4.8840   -2.9789  -21.4109 O   0  0  0  0  0  0  0  0  0  0  0  0
   -8.4472   -4.4176  -23.6160 H   0  0  0  0  0  0  0  0  0  0  0  0
   -6.7393   -4.3613  -24.3423 H   0  0  0  0  0  0  0  0  0  0  0  0
  1  2  2  0
  2  3  1  0
  3  4  1  0
  4  5  1  0
  5  6  2  0
  5  7  1  0
  7  8  1  0
  8  9  1  0
  9 10  1  0
 10 11  1  0
 11 12  2  0
 11 13  1  0
 13 14  1  0
 14 15  1  0
 14 16  1  0
 14 17  1  0
 13 18  1  0
 10 19  1  0
 10 20  1  0
  9 21  1  0
 21 22  2  0
 21 23  1  0
 23 24  2  0
 24 25  1  0
 25 26  2  0
 26 27  1  0
 26 28  1  0
 28 29  2  0
 28 30  1  0
 25 31  1  0
 24 32  1  0
  8 33  1  0
  8 34  1  0
  7 35  1  1
  4 36  1  0
 36 37  2  0
 37 38  1  0
 38 39  2  0
 39 40  1  0
 40 41  2  0
 41 42  1  0
 42 43  2  0
 43 44  1  0
 44 45  2  0
 44 46  1  0
 43 47  1  0
 42 48  1  0
 41 49  1  0
 39 50  1  0
 37 51  1  0
  3 52  1  0
  3 53  1  0
  2 54  1  0
 54 55  2  0
 54 56  1  0
  1 57  1  0
  1 58  1  0
 29  7  1  0
 45 36  1  0
 29 23  1  0
 45 40  1  0
M  CHG  1  56  -1
M  END
>  <cnnaffinities>  (1) 
[5.77933, 6.07149, 5.99143]

>  <score>  (1) 
5.77933

>  <index>  (1) 
5

>  <Smiles>  (1) 
C(=C(C(N(C(=O)[C@@]1(C(N(C(C(=O)N(C([H])([H])[H])[H])([H])[H])C(=O)c2c(c(c(Cl)c(c12)[H])[H])[H])([H])[H])[H])c1c(nc(c2c(c(c(c(c12)[H])[H])[H])[H])[H])[H])([H])[H])C(=O)[O-])([H])[H]

>  <h>  (1) 
<NA>

>  <Training>  (1) 
True

>  <Success>  (1) 
True

>  <enamine_searched>  (1) 
False

>  <enamine_id>  (1) 
nan

$$$$
