
     RDKit          3D

 56 60  0  0  0  0  0  0  0  0999 V2000
   -7.2922    3.4538  -21.9141 C   0  0  0  0  0  0  0  0  0  0  0  0
   -8.1250    2.9740  -23.0018 N   0  0  0  0  0  0  0  0  0  0  0  0
   -7.5474    2.2541  -23.9943 C   0  0  0  0  0  0  0  0  0  0  0  0
   -6.3330    2.1185  -24.0844 O   0  0  0  0  0  0  0  0  0  0  0  0
   -8.4984    1.6277  -25.0227 C   0  0  0  0  0  0  0  0  0  0  0  0
   -9.2439    0.4895  -24.5157 N   0  0  0  0  0  0  0  0  0  0  0  0
   -8.5577   -0.7717  -24.3163 C   0  0  0  0  0  0  0  0  0  0  0  0
   -8.9839   -1.4555  -22.9905 C   0  0  2  0  0  0  0  0  0  0  0  0
   -8.4360   -0.6635  -21.7745 C   0  0  0  0  0  0  0  0  0  0  0  0
   -8.8238    0.4120  -21.3603 O   0  0  0  0  0  0  0  0  0  0  0  0
   -7.4107   -1.3771  -21.1984 N   0  0  0  0  0  0  0  0  0  0  0  0
   -6.6081   -0.8043  -20.1736 C   0  0  0  0  0  0  0  0  0  0  0  0
   -6.9092   -1.0420  -18.8572 C   0  0  0  0  0  0  0  0  0  0  0  0
   -6.2078   -0.5510  -17.8048 N   0  0  0  0  0  0  0  0  0  0  0  0
   -5.1698    0.2077  -18.0735 C   0  0  0  0  0  0  0  0  0  0  0  0
   -4.7337    0.5324  -19.3904 C   0  0  0  0  0  0  0  0  0  0  0  0
   -3.6036    1.3624  -19.6358 C   0  0  0  0  0  0  0  0  0  0  0  0
   -3.2121    1.6482  -20.9167 C   0  0  0  0  0  0  0  0  0  0  0  0
   -3.9305    1.1143  -22.0113 C   0  0  0  0  0  0  0  0  0  0  0  0
   -5.0266    0.3115  -21.7984 C   0  0  0  0  0  0  0  0  0  0  0  0
   -5.4681    0.0068  -20.4814 C   0  0  0  0  0  0  0  0  0  0  0  0
   -5.5740   -0.0844  -22.6490 H   0  0  0  0  0  0  0  0  0  0  0  0
   -3.6356    1.3545  -23.0268 H   0  0  0  0  0  0  0  0  0  0  0  0
   -2.3583    2.2948  -21.0976 H   0  0  0  0  0  0  0  0  0  0  0  0
   -3.0711    1.7743  -18.7829 H   0  0  0  0  0  0  0  0  0  0  0  0
   -4.6217    0.6116  -17.2229 H   0  0  0  0  0  0  0  0  0  0  0  0
   -7.7581   -1.6709  -18.6013 H   0  0  0  0  0  0  0  0  0  0  0  0
   -7.0940   -2.6182  -21.8768 C   0  0  0  0  0  0  0  0  0  0  0  0
   -8.2975   -2.8522  -22.8204 C   0  0  2  0  0  0  0  0  0  0  0  0
   -7.8837   -3.5958  -24.0999 C   0  0  0  0  0  0  0  0  0  0  0  0
   -7.4717   -4.5841  -23.8585 H   0  0  0  0  0  0  0  0  0  0  0  0
   -7.1086   -3.0468  -24.6511 H   0  0  0  0  0  0  0  0  0  0  0  0
   -8.7303   -3.7472  -24.7802 H   0  0  0  0  0  0  0  0  0  0  0  0
   -9.0207   -3.4801  -22.2946 H   0  0  0  0  0  0  0  0  0  0  0  0
   -6.1516   -2.5369  -22.4438 H   0  0  0  0  0  0  0  0  0  0  0  0
   -6.9639   -3.4314  -21.1508 H   0  0  0  0  0  0  0  0  0  0  0  0
  -10.5037   -1.4593  -22.9225 C   0  0  0  0  0  0  0  0  0  0  0  0
  -11.1615   -2.2892  -22.0050 C   0  0  0  0  0  0  0  0  0  0  0  0
  -12.5411   -2.2754  -21.9234 C   0  0  0  0  0  0  0  0  0  0  0  0
  -13.3479   -3.3109  -20.7811 Cl  0  0  0  0  0  0  0  0  0  0  0  0
  -13.3072   -1.4246  -22.7189 C   0  0  0  0  0  0  0  0  0  0  0  0
  -12.6601   -0.5455  -23.5646 C   0  0  0  0  0  0  0  0  0  0  0  0
  -11.2665   -0.5276  -23.6398 C   0  0  0  0  0  0  0  0  0  0  0  0
  -10.6029    0.5908  -24.3896 C   0  0  0  0  0  0  0  0  0  0  0  0
  -11.2274    1.5514  -24.8175 O   0  0  0  0  0  0  0  0  0  0  0  0
  -13.2116    0.1735  -24.1578 H   0  0  0  0  0  0  0  0  0  0  0  0
  -14.3877   -1.4351  -22.6287 H   0  0  0  0  0  0  0  0  0  0  0  0
  -10.6082   -2.9226  -21.3194 H   0  0  0  0  0  0  0  0  0  0  0  0
   -7.4859   -0.5490  -24.2833 H   0  0  0  0  0  0  0  0  0  0  0  0
   -8.7569   -1.4608  -25.1553 H   0  0  0  0  0  0  0  0  0  0  0  0
   -7.8633    1.3362  -25.8652 H   0  0  0  0  0  0  0  0  0  0  0  0
   -9.2594    2.3320  -25.3739 H   0  0  0  0  0  0  0  0  0  0  0  0
   -9.1329    2.9443  -22.8898 H   0  0  0  0  0  0  0  0  0  0  0  0
   -7.9464    3.9268  -21.1783 H   0  0  0  0  0  0  0  0  0  0  0  0
   -6.7237    2.6189  -21.4656 H   0  0  0  0  0  0  0  0  0  0  0  0
   -6.5687    4.1970  -22.2771 H   0  0  0  0  0  0  0  0  0  0  0  0
  1  2  1  0
  2  3  1  0
  3  4  2  0
  3  5  1  0
  5  6  1  0
  6  7  1  0
  8  7  1  6
  8  9  1  0
  9 10  2  0
  9 11  1  0
 11 12  1  0
 12 13  2  0
 13 14  1  0
 14 15  2  0
 15 16  1  0
 16 17  2  0
 17 18  1  0
 18 19  2  0
 19 20  1  0
 20 21  2  0
 20 22  1  0
 19 23  1  0
 18 24  1  0
 17 25  1  0
 15 26  1  0
 13 27  1  0
 11 28  1  0
 28 29  1  0
 29 30  1  0
 30 31  1  0
 30 32  1  0
 30 33  1  0
 29 34  1  1
 28 35  1  0
 28 36  1  0
  8 37  1  0
 37 38  2  0
 38 39  1  0
 39 40  1  0
 39 41  2  0
 41 42  1  0
 42 43  2  0
 43 44  1  0
 44 45  2  0
 42 46  1  0
 41 47  1  0
 38 48  1  0
  7 49  1  0
  7 50  1  0
  5 51  1  0
  5 52  1  0
  2 53  1  0
  1 54  1  0
  1 55  1  0
  1 56  1  0
 44  6  1  0
 29  8  1  0
 43 37  1  0
 21 12  1  0
 21 16  1  0
M  END
>  <cnnaffinities>  (1) 
[6.47352]

>  <score>  (1) 
6.47352

>  <index>  (1) 
78

>  <Smiles>  (1) 
C(N(C(=O)C(N1C([C@@]2(C(=O)N(c3c(nc(c4c(c(c(c(c34)[H])[H])[H])[H])[H])[H])C([C@@]2(C([H])([H])[H])[H])([H])[H])c2c(c(Cl)c(c(c2C1=O)[H])[H])[H])([H])[H])([H])[H])[H])([H])([H])[H]

>  <h>  (1) 
<NA>

>  <Training>  (1) 
True

>  <Success>  (1) 
True

>  <enamine_searched>  (1) 
False

>  <enamine_id>  (1) 
nan

$$$$
