
     RDKit          3D

 66 71  0  0  0  0  0  0  0  0999 V2000
   -7.2022    2.9696  -22.8591 C   0  0  0  0  0  0  0  0  0  0  0  0
   -8.2793    2.2055  -23.4595 N   0  0  0  0  0  0  0  0  0  0  0  0
   -8.1484    1.5664  -24.6508 C   0  0  0  0  0  0  0  0  0  0  0  0
   -7.0874    1.4231  -25.2379 O   0  0  0  0  0  0  0  0  0  0  0  0
   -9.4797    1.0149  -25.1734 C   0  0  0  0  0  0  0  0  0  0  0  0
  -10.0149    0.0320  -24.2502 N   0  0  0  0  0  0  0  0  0  0  0  0
   -9.3109   -1.2294  -24.0958 C   0  0  0  0  0  0  0  0  0  0  0  0
   -9.5025   -1.8274  -22.6803 C   0  0  2  0  0  0  0  0  0  0  0  0
   -8.9223   -0.8591  -21.6046 C   0  0  0  0  0  0  0  0  0  0  0  0
   -9.4627    0.1185  -21.1221 O   0  0  0  0  0  0  0  0  0  0  0  0
   -7.6698   -1.3050  -21.2630 N   0  0  0  0  0  0  0  0  0  0  0  0
   -6.8984   -0.7354  -20.2241 C   0  0  0  0  0  0  0  0  0  0  0  0
   -7.2279   -0.9909  -18.9148 C   0  0  0  0  0  0  0  0  0  0  0  0
   -6.4983   -0.5826  -17.8477 N   0  0  0  0  0  0  0  0  0  0  0  0
   -5.4106    0.1101  -18.0947 C   0  0  0  0  0  0  0  0  0  0  0  0
   -4.9596    0.4569  -19.4020 C   0  0  0  0  0  0  0  0  0  0  0  0
   -3.7783    1.2204  -19.6182 C   0  0  0  0  0  0  0  0  0  0  0  0
   -3.3681    1.5163  -20.8882 C   0  0  0  0  0  0  0  0  0  0  0  0
   -4.1046    1.0618  -22.0028 C   0  0  0  0  0  0  0  0  0  0  0  0
   -5.2561    0.3271  -21.8203 C   0  0  0  0  0  0  0  0  0  0  0  0
   -5.7144    0.0130  -20.5121 C   0  0  0  0  0  0  0  0  0  0  0  0
   -5.8315    0.0124  -22.6849 H   0  0  0  0  0  0  0  0  0  0  0  0
   -3.7767    1.3062  -23.0087 H   0  0  0  0  0  0  0  0  0  0  0  0
   -2.4728    2.1120  -21.0492 H   0  0  0  0  0  0  0  0  0  0  0  0
   -3.2194    1.5621  -18.7506 H   0  0  0  0  0  0  0  0  0  0  0  0
   -4.8162    0.4294  -17.2369 H   0  0  0  0  0  0  0  0  0  0  0  0
   -8.1163   -1.5769  -18.6899 H   0  0  0  0  0  0  0  0  0  0  0  0
   -7.2591   -2.4703  -22.0076 C   0  0  0  0  0  0  0  0  0  0  0  0
   -8.5869   -3.0888  -22.4718 C   0  0  2  0  0  0  0  0  0  0  0  0
   -8.3977   -4.0563  -23.6625 C   0  0  0  0  0  0  0  0  0  0  0  0
   -7.4148   -5.2017  -23.4622 C   0  0  0  0  0  0  0  0  0  0  0  0
   -6.0331   -4.9964  -23.5812 C   0  0  0  0  0  0  0  0  0  0  0  0
   -5.1372   -6.0604  -23.5625 C   0  0  0  0  0  0  0  0  0  0  0  0
   -5.5940   -7.3629  -23.3845 C   0  0  0  0  0  0  0  0  0  0  0  0
   -6.9580   -7.5808  -23.2196 C   0  0  0  0  0  0  0  0  0  0  0  0
   -7.8511   -6.5115  -23.2501 C   0  0  0  0  0  0  0  0  0  0  0  0
   -8.9128   -6.7138  -23.1262 H   0  0  0  0  0  0  0  0  0  0  0  0
   -7.3417   -8.5916  -23.1020 H   0  0  0  0  0  0  0  0  0  0  0  0
   -4.8854   -8.1894  -23.3570 H   0  0  0  0  0  0  0  0  0  0  0  0
   -4.0775   -5.8716  -23.7189 H   0  0  0  0  0  0  0  0  0  0  0  0
   -5.6423   -3.9879  -23.7095 H   0  0  0  0  0  0  0  0  0  0  0  0
   -9.3788   -4.4599  -23.9419 H   0  0  0  0  0  0  0  0  0  0  0  0
   -8.0380   -3.4818  -24.5264 H   0  0  0  0  0  0  0  0  0  0  0  0
   -8.9859   -3.6580  -21.6260 H   0  0  0  0  0  0  0  0  0  0  0  0
   -6.6617   -3.1447  -21.3903 H   0  0  0  0  0  0  0  0  0  0  0  0
   -6.6482   -2.1812  -22.8773 H   0  0  0  0  0  0  0  0  0  0  0  0
  -11.0068   -1.9531  -22.4989 C   0  0  0  0  0  0  0  0  0  0  0  0
  -11.6085   -2.9480  -21.7262 C   0  0  0  0  0  0  0  0  0  0  0  0
  -12.9708   -2.8945  -21.4690 C   0  0  0  0  0  0  0  0  0  0  0  0
  -13.7134   -4.0337  -20.3945 Cl  0  0  0  0  0  0  0  0  0  0  0  0
  -13.7818   -1.8875  -21.9827 C   0  0  0  0  0  0  0  0  0  0  0  0
  -13.2015   -0.9057  -22.7482 C   0  0  0  0  0  0  0  0  0  0  0  0
  -11.8377   -0.9398  -23.0088 C   0  0  0  0  0  0  0  0  0  0  0  0
  -11.3106    0.1683  -23.8548 C   0  0  0  0  0  0  0  0  0  0  0  0
  -11.9937    1.1419  -24.1505 O   0  0  0  0  0  0  0  0  0  0  0  0
  -13.7740   -0.0737  -23.1431 H   0  0  0  0  0  0  0  0  0  0  0  0
  -14.8392   -1.8679  -21.7504 H   0  0  0  0  0  0  0  0  0  0  0  0
  -11.0098   -3.7323  -21.2826 H   0  0  0  0  0  0  0  0  0  0  0  0
   -8.2538   -1.0524  -24.3013 H   0  0  0  0  0  0  0  0  0  0  0  0
   -9.6858   -1.9588  -24.8280 H   0  0  0  0  0  0  0  0  0  0  0  0
   -9.3576    0.5984  -26.1789 H   0  0  0  0  0  0  0  0  0  0  0  0
  -10.2339    1.8089  -25.2327 H   0  0  0  0  0  0  0  0  0  0  0  0
   -9.1780    2.1716  -22.9988 H   0  0  0  0  0  0  0  0  0  0  0  0
   -7.5363    3.9872  -22.6310 H   0  0  0  0  0  0  0  0  0  0  0  0
   -6.3817    3.0000  -23.5840 H   0  0  0  0  0  0  0  0  0  0  0  0
   -6.8450    2.5105  -21.9281 H   0  0  0  0  0  0  0  0  0  0  0  0
  1  2  1  0
  2  3  1  0
  3  4  2  0
  3  5  1  0
  5  6  1  0
  6  7  1  0
  8  7  1  6
  8  9  1  0
  9 10  2  0
  9 11  1  0
 11 12  1  0
 12 13  2  0
 13 14  1  0
 14 15  2  0
 15 16  1  0
 16 17  2  0
 17 18  1  0
 18 19  2  0
 19 20  1  0
 20 21  2  0
 20 22  1  0
 19 23  1  0
 18 24  1  0
 17 25  1  0
 15 26  1  0
 13 27  1  0
 11 28  1  0
 28 29  1  0
 29 30  1  0
 30 31  1  0
 31 32  2  0
 32 33  1  0
 33 34  2  0
 34 35  1  0
 35 36  2  0
 36 37  1  0
 35 38  1  0
 34 39  1  0
 33 40  1  0
 32 41  1  0
 30 42  1  0
 30 43  1  0
 29 44  1  1
 28 45  1  0
 28 46  1  0
  8 47  1  0
 47 48  2  0
 48 49  1  0
 49 50  1  0
 49 51  2  0
 51 52  1  0
 52 53  2  0
 53 54  1  0
 54 55  2  0
 52 56  1  0
 51 57  1  0
 48 58  1  0
  7 59  1  0
  7 60  1  0
  5 61  1  0
  5 62  1  0
  2 63  1  0
  1 64  1  0
  1 65  1  0
  1 66  1  0
 54  6  1  0
 29  8  1  0
 36 31  1  0
 53 47  1  0
 21 12  1  0
 21 16  1  0
M  END
>  <cnnaffinities>  (1) 
[7.22684, 7.22525, 6.94579, 6.91456, 6.83126]

>  <score>  (1) 
7.22684

>  <index>  (1) 
20

>  <Smiles>  (1) 
C(N(C(=O)C(N1C([C@@]2(C(=O)N(c3c(nc(c4c(c(c(c(c34)[H])[H])[H])[H])[H])[H])C([C@@]2(C(c2c(c(c(c(c2[H])[H])[H])[H])[H])([H])[H])[H])([H])[H])c2c(c(Cl)c(c(c2C1=O)[H])[H])[H])([H])[H])([H])[H])[H])([H])([H])[H]

>  <h>  (1) 
<NA>

>  <Training>  (1) 
True

>  <Success>  (1) 
True

>  <enamine_searched>  (1) 
False

>  <enamine_id>  (1) 
nan

$$$$
