
     RDKit          3D

 40 43  0  0  0  0  0  0  0  0999 V2000
   -8.3035   -1.8553  -26.5135 C   0  0  0  0  0  0  0  0  0  0  0  0
   -7.4883   -2.9617  -25.8442 C   0  0  2  0  0  0  0  0  0  0  0  0
   -8.3341   -4.2144  -25.6200 C   0  0  0  0  0  0  0  0  0  0  0  0
   -9.2692   -4.0325  -24.5767 O   0  0  0  0  0  0  0  0  0  0  0  0
   -8.6159   -3.8825  -23.3342 C   0  0  0  0  0  0  0  0  0  0  0  0
   -7.7646   -2.5997  -23.2878 C   0  0  1  0  0  0  0  0  0  0  0  0
   -6.8356   -2.5415  -24.5201 C   0  0  0  0  0  0  0  0  0  0  0  0
   -6.4351   -1.5223  -24.6038 H   0  0  0  0  0  0  0  0  0  0  0  0
   -5.9760   -3.1927  -24.3191 H   0  0  0  0  0  0  0  0  0  0  0  0
   -8.5848   -1.4127  -23.1247 N   0  0  0  0  0  0  0  0  0  0  0  0
   -8.3721   -0.6976  -21.9744 C   0  0  0  0  0  0  0  0  0  0  0  0
   -8.8970    0.3269  -21.6093 O   0  0  0  0  0  0  0  0  0  0  0  0
   -7.3725   -1.4140  -21.2648 N   0  0  0  0  0  0  0  0  0  0  0  0
   -6.5902   -0.8368  -20.2030 C   0  0  0  0  0  0  0  0  0  0  0  0
   -6.8921   -1.0562  -18.8809 C   0  0  0  0  0  0  0  0  0  0  0  0
   -6.2016   -0.5441  -17.8204 N   0  0  0  0  0  0  0  0  0  0  0  0
   -5.1611    0.2182  -18.0682 C   0  0  0  0  0  0  0  0  0  0  0  0
   -4.7247    0.5320  -19.3883 C   0  0  0  0  0  0  0  0  0  0  0  0
   -3.5949    1.3642  -19.6278 C   0  0  0  0  0  0  0  0  0  0  0  0
   -3.2073    1.6450  -20.9124 C   0  0  0  0  0  0  0  0  0  0  0  0
   -3.9260    1.1113  -22.0032 C   0  0  0  0  0  0  0  0  0  0  0  0
   -5.0190    0.3082  -21.7937 C   0  0  0  0  0  0  0  0  0  0  0  0
   -5.4514   -0.0053  -20.4782 C   0  0  0  0  0  0  0  0  0  0  0  0
   -5.5683   -0.0965  -22.6362 H   0  0  0  0  0  0  0  0  0  0  0  0
   -3.6160    1.3397  -23.0179 H   0  0  0  0  0  0  0  0  0  0  0  0
   -2.3491    2.2824  -21.1046 H   0  0  0  0  0  0  0  0  0  0  0  0
   -3.0478    1.7777  -18.7831 H   0  0  0  0  0  0  0  0  0  0  0  0
   -4.6020    0.6262  -17.2186 H   0  0  0  0  0  0  0  0  0  0  0  0
   -7.7403   -1.6783  -18.6106 H   0  0  0  0  0  0  0  0  0  0  0  0
   -6.9516   -2.5411  -21.9962 C   0  0  0  0  0  0  0  0  0  0  0  0
   -6.0903   -3.3117  -21.6546 O   0  0  0  0  0  0  0  0  0  0  0  0
   -9.3143   -1.1613  -23.7679 H   0  0  0  0  0  0  0  0  0  0  0  0
   -9.3846   -3.8331  -22.5550 H   0  0  0  0  0  0  0  0  0  0  0  0
   -7.9771   -4.7552  -23.1336 H   0  0  0  0  0  0  0  0  0  0  0  0
   -7.6982   -5.0825  -25.3802 H   0  0  0  0  0  0  0  0  0  0  0  0
   -8.9122   -4.4613  -26.5167 H   0  0  0  0  0  0  0  0  0  0  0  0
   -6.6805   -3.2353  -26.5362 H   0  0  0  0  0  0  0  0  0  0  0  0
   -7.7452   -0.9148  -26.5393 H   0  0  0  0  0  0  0  0  0  0  0  0
   -8.5381   -2.1309  -27.5472 H   0  0  0  0  0  0  0  0  0  0  0  0
   -9.2509   -1.6759  -25.9995 H   0  0  0  0  0  0  0  0  0  0  0  0
  1  2  1  0
  2  3  1  0
  3  4  1  0
  4  5  1  0
  5  6  1  0
  6  7  1  0
  7  8  1  0
  7  9  1  0
  6 10  1  6
 10 11  1  0
 11 12  2  0
 11 13  1  0
 13 14  1  0
 14 15  2  0
 15 16  1  0
 16 17  2  0
 17 18  1  0
 18 19  2  0
 19 20  1  0
 20 21  2  0
 21 22  1  0
 22 23  2  0
 22 24  1  0
 21 25  1  0
 20 26  1  0
 19 27  1  0
 17 28  1  0
 15 29  1  0
 13 30  1  0
 30 31  2  0
 10 32  1  0
  5 33  1  0
  5 34  1  0
  3 35  1  0
  3 36  1  0
  2 37  1  6
  1 38  1  0
  1 39  1  0
  1 40  1  0
  7  2  1  0
 23 14  1  0
 30  6  1  0
 23 18  1  0
M  END
>  <cnnaffinities>  (1) 
[5.04544, 5.07572, 5.2439, 5.03291, 5.0627]

>  <score>  (1) 
5.04544

>  <index>  (1) 
97

>  <Smiles>  (1) 
C([C@@]1(C(OC([C@@]2(C1([H])[H])N(C(=O)N(c1c(nc(c3c(c(c(c(c13)[H])[H])[H])[H])[H])[H])C2=O)[H])([H])[H])([H])[H])[H])([H])([H])[H]

>  <h>  (1) 
<NA>

>  <Training>  (1) 
True

>  <Success>  (1) 
True

>  <enamine_searched>  (1) 
False

>  <enamine_id>  (1) 
nan

$$$$
