
     RDKit          3D

 55 60  0  0  0  0  0  0  0  0999 V2000
  -10.2281   -2.9596  -22.0706 C   0  0  0  0  0  0  0  0  0  0  0  0
   -9.1479   -2.0231  -22.6436 C   0  0  1  0  0  0  0  0  0  0  0  0
   -8.6729   -1.0291  -21.5618 C   0  0  0  0  0  0  0  0  0  0  0  0
   -7.3426   -1.4656  -21.2095 N   0  0  0  0  0  0  0  0  0  0  0  0
   -6.5676   -0.8642  -20.1884 C   0  0  0  0  0  0  0  0  0  0  0  0
   -6.9072   -1.0609  -18.8741 C   0  0  0  0  0  0  0  0  0  0  0  0
   -6.2344   -0.5416  -17.8192 N   0  0  0  0  0  0  0  0  0  0  0  0
   -5.1889    0.2059  -18.0890 C   0  0  0  0  0  0  0  0  0  0  0  0
   -4.7423    0.5149  -19.4063 C   0  0  0  0  0  0  0  0  0  0  0  0
   -3.6177    1.3529  -19.6336 C   0  0  0  0  0  0  0  0  0  0  0  0
   -3.2296    1.6633  -20.9076 C   0  0  0  0  0  0  0  0  0  0  0  0
   -3.9536    1.1565  -22.0124 C   0  0  0  0  0  0  0  0  0  0  0  0
   -5.0421    0.3414  -21.8225 C   0  0  0  0  0  0  0  0  0  0  0  0
   -5.4542   -0.0182  -20.5035 C   0  0  0  0  0  0  0  0  0  0  0  0
   -5.5887   -0.0411  -22.6855 H   0  0  0  0  0  0  0  0  0  0  0  0
   -3.6399    1.4127  -23.0210 H   0  0  0  0  0  0  0  0  0  0  0  0
   -2.3702    2.3081  -21.0788 H   0  0  0  0  0  0  0  0  0  0  0  0
   -3.0879    1.7487  -18.7708 H   0  0  0  0  0  0  0  0  0  0  0  0
   -4.6395    0.6070  -17.2372 H   0  0  0  0  0  0  0  0  0  0  0  0
   -7.7637   -1.6848  -18.6203 H   0  0  0  0  0  0  0  0  0  0  0  0
   -6.8245   -2.4311  -22.0352 C   0  0  0  0  0  0  0  0  0  0  0  0
   -5.7318   -2.9339  -21.8802 O   0  0  0  0  0  0  0  0  0  0  0  0
   -7.8430   -2.7127  -23.1600 C   0  0  1  0  0  0  0  0  0  0  0  0
   -7.9894   -4.2335  -23.3714 C   0  0  0  0  0  0  0  0  0  0  0  0
   -6.7686   -4.8245  -23.9094 N   0  0  0  0  0  0  0  0  0  0  0  0
   -6.2547   -6.0875  -23.3512 C   0  0  0  0  0  0  0  0  0  0  0  0
   -5.0986   -6.0486  -22.3662 C   0  0  0  0  0  0  0  0  0  0  0  0
   -5.3455   -5.8587  -20.8328 C   0  0  0  0  0  0  0  0  0  0  0  0
   -5.3459   -5.8590  -20.8331 N   0  0  0  0  0  0  0  0  0  0  0  0
   -2.8672   -5.8661  -22.3690 N   0  0  0  0  0  0  0  0  0  0  0  0
   -3.9467   -6.0117  -23.0613 N   0  0  0  0  0  0  0  0  0  0  0  0
   -2.1554   -5.6765  -23.0834 H   0  0  0  0  0  0  0  0  0  0  0  0
   -6.4983   -6.1663  -20.8922 H   0  0  0  0  0  0  0  0  0  0  0  0
   -5.9565   -6.6151  -24.2521 H   0  0  0  0  0  0  0  0  0  0  0  0
   -7.1424   -6.5905  -22.9252 H   0  0  0  0  0  0  0  0  0  0  0  0
   -6.2244   -4.3101  -25.0609 C   0  0  0  0  0  0  0  0  0  0  0  0
   -5.4703   -4.9245  -25.8087 O   0  0  0  0  0  0  0  0  0  0  0  0
   -6.5925   -2.8805  -25.3566 C   0  0  0  0  0  0  0  0  0  0  0  0
   -6.0723   -2.3251  -26.5258 C   0  0  0  0  0  0  0  0  0  0  0  0
   -6.2882   -0.9942  -26.8289 C   0  0  0  0  0  0  0  0  0  0  0  0
   -7.0189   -0.2310  -25.9256 C   0  0  0  0  0  0  0  0  0  0  0  0
   -7.2216    1.0686  -26.2070 F   0  0  0  0  0  0  0  0  0  0  0  0
   -7.5417   -0.7490  -24.7565 C   0  0  0  0  0  0  0  0  0  0  0  0
   -7.3439   -2.1072  -24.4648 C   0  0  0  0  0  0  0  0  0  0  0  0
   -8.0882   -0.0735  -24.1030 H   0  0  0  0  0  0  0  0  0  0  0  0
   -5.9053   -0.5247  -27.7287 H   0  0  0  0  0  0  0  0  0  0  0  0
   -5.4853   -2.9870  -27.1546 H   0  0  0  0  0  0  0  0  0  0  0  0
   -8.8826   -4.3954  -24.0034 H   0  0  0  0  0  0  0  0  0  0  0  0
   -8.1696   -4.7036  -22.4124 H   0  0  0  0  0  0  0  0  0  0  0  0
   -8.6654    0.0171  -21.8994 H   0  0  0  0  0  0  0  0  0  0  0  0
   -9.3305   -1.0816  -20.6994 H   0  0  0  0  0  0  0  0  0  0  0  0
   -9.6160   -1.4841  -23.4760 H   0  0  0  0  0  0  0  0  0  0  0  0
  -11.0806   -2.3770  -21.7010 H   0  0  0  0  0  0  0  0  0  0  0  0
  -10.6161   -3.6478  -22.8271 H   0  0  0  0  0  0  0  0  0  0  0  0
   -9.8526   -3.5585  -21.2327 H   0  0  0  0  0  0  0  0  0  0  0  0
  1  2  1  0
  2  3  1  0
  3  4  1  0
  4  5  1  0
  5  6  2  0
  6  7  1  0
  7  8  2  0
  8  9  1  0
  9 10  2  0
 10 11  1  0
 11 12  2  0
 12 13  1  0
 13 14  2  0
 13 15  1  0
 12 16  1  0
 11 17  1  0
 10 18  1  0
  8 19  1  0
  6 20  1  0
  4 21  1  0
 21 22  2  0
 21 23  1  0
 23 24  1  6
 24 25  1  0
 25 26  1  0
 26 27  1  0
 27 28  1  0
 28 29  2  0
 29 30  1  0
 30 31  1  0
 30 32  1  0
 28 33  1  0
 26 34  1  0
 26 35  1  0
 25 36  1  0
 36 37  2  0
 36 38  1  0
 38 39  2  0
 39 40  1  0
 40 41  2  0
 41 42  1  0
 41 43  1  0
 43 44  2  0
 43 45  1  0
 40 46  1  0
 39 47  1  0
 24 48  1  0
 24 49  1  0
  3 50  1  0
  3 51  1  0
  2 52  1  6
  1 53  1  0
  1 54  1  0
  1 55  1  0
 23  2  1  0
 31 27  2  0
 44 38  1  0
 14  5  1  0
 44 23  1  0
 14  9  1  0
M  END
>  <cnnaffinities>  (1) 
[5.75269, 6.39734]

>  <score>  (1) 
5.75269

>  <index>  (1) 
29

>  <Smiles>  (1) 
C([C@]1(C(N(c2c(nc(c3c(c(c(c(c23)[H])[H])[H])[H])[H])[H])C(=O)[C@]21C(N(C(c1c(nn(n1)[H])[H])([H])[H])C(=O)c1c(c(c(F)c(c21)[H])[H])[H])([H])[H])([H])[H])[H])([H])([H])[H]

>  <h>  (1) 
<NA>

>  <Training>  (1) 
True

>  <Success>  (1) 
True

>  <enamine_searched>  (1) 
False

>  <enamine_id>  (1) 
nan

$$$$
