
     RDKit          3D

 57 62  0  0  0  0  0  0  0  0999 V2000
   -7.5160   -3.5834  -23.7478 C   0  0  0  0  0  0  0  0  0  0  0  0
   -8.4088   -2.9152  -22.7009 C   0  0  1  0  0  0  0  0  0  0  0  0
   -7.7243   -2.7306  -21.3320 C   0  0  0  0  0  0  0  0  0  0  0  0
   -7.4152   -1.3197  -21.2617 N   0  0  0  0  0  0  0  0  0  0  0  0
   -6.6198   -0.7842  -20.2233 C   0  0  0  0  0  0  0  0  0  0  0  0
   -6.9154   -1.0666  -18.9127 C   0  0  0  0  0  0  0  0  0  0  0  0
   -6.2424   -0.5798  -17.8405 N   0  0  0  0  0  0  0  0  0  0  0  0
   -5.2097    0.1932  -18.0851 C   0  0  0  0  0  0  0  0  0  0  0  0
   -4.7560    0.5205  -19.3952 C   0  0  0  0  0  0  0  0  0  0  0  0
   -3.6178    1.3453  -19.6032 C   0  0  0  0  0  0  0  0  0  0  0  0
   -3.1823    1.6176  -20.8714 C   0  0  0  0  0  0  0  0  0  0  0  0
   -3.8505    1.0683  -21.9879 C   0  0  0  0  0  0  0  0  0  0  0  0
   -4.9534    0.2704  -21.8126 C   0  0  0  0  0  0  0  0  0  0  0  0
   -5.4561    0.0029  -20.5075 C   0  0  0  0  0  0  0  0  0  0  0  0
   -5.4574   -0.1573  -22.6727 H   0  0  0  0  0  0  0  0  0  0  0  0
   -3.4923    1.2872  -22.9904 H   0  0  0  0  0  0  0  0  0  0  0  0
   -2.3207    2.2608  -21.0306 H   0  0  0  0  0  0  0  0  0  0  0  0
   -3.1080    1.7552  -18.7347 H   0  0  0  0  0  0  0  0  0  0  0  0
   -4.6668    0.5931  -17.2268 H   0  0  0  0  0  0  0  0  0  0  0  0
   -7.7651   -1.7038  -18.6732 H   0  0  0  0  0  0  0  0  0  0  0  0
   -8.1734   -0.5551  -22.1254 C   0  0  0  0  0  0  0  0  0  0  0  0
   -8.2034    0.6545  -22.1315 O   0  0  0  0  0  0  0  0  0  0  0  0
   -8.9685   -1.5058  -23.0542 C   0  0  1  0  0  0  0  0  0  0  0  0
   -8.7503   -1.0836  -24.5265 C   0  0  0  0  0  0  0  0  0  0  0  0
   -9.3220    0.2276  -24.7982 N   0  0  0  0  0  0  0  0  0  0  0  0
   -8.5626    1.1875  -25.5788 C   0  0  0  0  0  0  0  0  0  0  0  0
   -8.5511    0.9093  -27.0696 C   0  0  0  0  0  0  0  0  0  0  0  0
   -8.0409   -0.2619  -27.4732 N   0  0  0  0  0  0  0  0  0  0  0  0
   -8.0369   -0.4653  -28.7896 C   0  0  0  0  0  0  0  0  0  0  0  0
   -8.5475    0.4430  -29.7030 C   0  0  0  0  0  0  0  0  0  0  0  0
   -9.0783    1.6053  -29.1692 C   0  0  0  0  0  0  0  0  0  0  0  0
   -9.0593    1.8529  -27.8600 N   0  0  0  0  0  0  0  0  0  0  0  0
   -9.5560    2.3612  -29.7927 H   0  0  0  0  0  0  0  0  0  0  0  0
   -8.5659    0.2527  -30.7725 H   0  0  0  0  0  0  0  0  0  0  0  0
   -7.6148   -1.4088  -29.1288 H   0  0  0  0  0  0  0  0  0  0  0  0
   -9.0195    2.1689  -25.4148 H   0  0  0  0  0  0  0  0  0  0  0  0
   -7.5293    1.1717  -25.2048 H   0  0  0  0  0  0  0  0  0  0  0  0
  -10.5342    0.6240  -24.3153 C   0  0  0  0  0  0  0  0  0  0  0  0
  -11.0645    1.6756  -24.6554 O   0  0  0  0  0  0  0  0  0  0  0  0
  -11.1842   -0.3255  -23.3637 C   0  0  0  0  0  0  0  0  0  0  0  0
  -12.5527   -0.1689  -23.1497 C   0  0  0  0  0  0  0  0  0  0  0  0
  -13.2494   -1.0943  -22.4022 C   0  0  0  0  0  0  0  0  0  0  0  0
  -12.5282   -2.1225  -21.8112 C   0  0  0  0  0  0  0  0  0  0  0  0
  -13.1801   -2.9624  -20.9823 F   0  0  0  0  0  0  0  0  0  0  0  0
  -11.1697   -2.2862  -21.9715 C   0  0  0  0  0  0  0  0  0  0  0  0
  -10.4681   -1.3831  -22.7830 C   0  0  0  0  0  0  0  0  0  0  0  0
  -10.7123   -3.1203  -21.4331 H   0  0  0  0  0  0  0  0  0  0  0  0
  -14.3241   -1.0333  -22.2466 H   0  0  0  0  0  0  0  0  0  0  0  0
  -13.0448    0.6665  -23.6331 H   0  0  0  0  0  0  0  0  0  0  0  0
   -9.2036   -1.8325  -25.1898 H   0  0  0  0  0  0  0  0  0  0  0  0
   -7.6860   -1.0308  -24.7664 H   0  0  0  0  0  0  0  0  0  0  0  0
   -8.4043   -3.0064  -20.5158 H   0  0  0  0  0  0  0  0  0  0  0  0
   -6.8054   -3.3146  -21.2283 H   0  0  0  0  0  0  0  0  0  0  0  0
   -9.2464   -3.6021  -22.5903 H   0  0  0  0  0  0  0  0  0  0  0  0
   -6.6153   -3.0016  -23.9637 H   0  0  0  0  0  0  0  0  0  0  0  0
   -8.0715   -3.7263  -24.6800 H   0  0  0  0  0  0  0  0  0  0  0  0
   -7.2163   -4.5766  -23.3969 H   0  0  0  0  0  0  0  0  0  0  0  0
  1  2  1  0
  2  3  1  0
  3  4  1  0
  4  5  1  0
  5  6  2  0
  6  7  1  0
  7  8  2  0
  8  9  1  0
  9 10  2  0
 10 11  1  0
 11 12  2  0
 12 13  1  0
 13 14  2  0
 13 15  1  0
 12 16  1  0
 11 17  1  0
 10 18  1  0
  8 19  1  0
  6 20  1  0
  4 21  1  0
 21 22  2  0
 21 23  1  0
 23 24  1  6
 24 25  1  0
 25 26  1  0
 26 27  1  0
 27 28  2  0
 28 29  1  0
 29 30  2  0
 30 31  1  0
 31 32  2  0
 31 33  1  0
 30 34  1  0
 29 35  1  0
 26 36  1  0
 26 37  1  0
 25 38  1  0
 38 39  2  0
 38 40  1  0
 40 41  2  0
 41 42  1  0
 42 43  2  0
 43 44  1  0
 43 45  1  0
 45 46  2  0
 45 47  1  0
 42 48  1  0
 41 49  1  0
 24 50  1  0
 24 51  1  0
  3 52  1  0
  3 53  1  0
  2 54  1  1
  1 55  1  0
  1 56  1  0
  1 57  1  0
 23  2  1  0
 32 27  1  0
 46 40  1  0
 14  5  1  0
 46 23  1  0
 14  9  1  0
M  END
>  <cnnaffinities>  (1) 
[6.16427, 6.53098, 6.51138]

>  <score>  (1) 
6.16427

>  <index>  (1) 
56

>  <Smiles>  (1) 
C([C@]1(C(N(c2c(nc(c3c(c(c(c(c23)[H])[H])[H])[H])[H])[H])C(=O)[C@]21C(N(C(c1nc(c(c(n1)[H])[H])[H])([H])[H])C(=O)c1c(c(c(F)c(c21)[H])[H])[H])([H])[H])([H])[H])[H])([H])([H])[H]

>  <h>  (1) 
<NA>

>  <Training>  (1) 
True

>  <Success>  (1) 
True

>  <enamine_searched>  (1) 
False

>  <enamine_id>  (1) 
nan

$$$$
