
     RDKit          3D

 64 68  0  0  0  0  0  0  0  0999 V2000
   -7.4192    3.3877  -21.8385 C   0  0  0  0  0  0  0  0  0  0  0  0
   -8.3382    2.9241  -22.8606 N   0  0  0  0  0  0  0  0  0  0  0  0
   -7.7981    2.1934  -23.8764 C   0  0  0  0  0  0  0  0  0  0  0  0
   -6.5900    2.0333  -23.9942 O   0  0  0  0  0  0  0  0  0  0  0  0
   -8.7807    1.5812  -24.8711 C   0  0  0  0  0  0  0  0  0  0  0  0
   -9.4485    0.4221  -24.3197 N   0  0  0  0  0  0  0  0  0  0  0  0
   -8.7048   -0.8150  -24.1623 C   0  0  0  0  0  0  0  0  0  0  0  0
   -9.0778   -1.5534  -22.8543 C   0  0  2  0  0  0  0  0  0  0  0  0
   -8.5450   -0.7683  -21.6358 C   0  0  0  0  0  0  0  0  0  0  0  0
   -9.0224    0.2298  -21.1357 O   0  0  0  0  0  0  0  0  0  0  0  0
   -7.4025   -1.3919  -21.1905 N   0  0  0  0  0  0  0  0  0  0  0  0
   -6.6055   -0.8172  -20.1715 C   0  0  0  0  0  0  0  0  0  0  0  0
   -6.9232   -1.0471  -18.8569 C   0  0  0  0  0  0  0  0  0  0  0  0
   -6.2326   -0.5519  -17.8009 N   0  0  0  0  0  0  0  0  0  0  0  0
   -5.1897    0.2015  -18.0698 C   0  0  0  0  0  0  0  0  0  0  0  0
   -4.7487    0.5207  -19.3871 C   0  0  0  0  0  0  0  0  0  0  0  0
   -3.6232    1.3547  -19.6293 C   0  0  0  0  0  0  0  0  0  0  0  0
   -3.2372    1.6514  -20.9092 C   0  0  0  0  0  0  0  0  0  0  0  0
   -3.9569    1.1348  -22.0104 C   0  0  0  0  0  0  0  0  0  0  0  0
   -5.0510    0.3267  -21.8049 C   0  0  0  0  0  0  0  0  0  0  0  0
   -5.4719   -0.0031  -20.4842 C   0  0  0  0  0  0  0  0  0  0  0  0
   -5.6078   -0.0424  -22.6620 H   0  0  0  0  0  0  0  0  0  0  0  0
   -3.6570    1.3846  -23.0241 H   0  0  0  0  0  0  0  0  0  0  0  0
   -2.3794    2.2953  -21.0873 H   0  0  0  0  0  0  0  0  0  0  0  0
   -3.0862    1.7580  -18.7766 H   0  0  0  0  0  0  0  0  0  0  0  0
   -4.6271    0.5982  -17.2252 H   0  0  0  0  0  0  0  0  0  0  0  0
   -7.7881   -1.6636  -18.6201 H   0  0  0  0  0  0  0  0  0  0  0  0
   -7.0425   -2.5870  -21.9209 C   0  0  0  0  0  0  0  0  0  0  0  0
   -8.3192   -2.9076  -22.7231 C   0  0  2  0  0  0  0  0  0  0  0  0
   -8.0456   -3.6520  -24.0301 C   0  0  0  0  0  0  0  0  0  0  0  0
   -7.4064   -5.3039  -23.7484 S   0  0  0  0  0  0  0  0  0  0  0  0
   -6.0519   -5.1979  -23.2294 O   0  0  0  0  0  0  0  0  0  0  0  0
   -8.4150   -6.0702  -23.0344 O   0  0  0  0  0  0  0  0  0  0  0  0
   -7.2948   -5.9240  -25.2676 N   0  0  0  0  0  0  0  0  0  0  0  0
   -8.4724   -6.4145  -25.9607 C   0  0  0  0  0  0  0  0  0  0  0  0
   -8.9917   -7.0947  -25.2883 H   0  0  0  0  0  0  0  0  0  0  0  0
   -9.1802   -5.6310  -26.2629 H   0  0  0  0  0  0  0  0  0  0  0  0
   -8.1611   -6.9637  -26.8543 H   0  0  0  0  0  0  0  0  0  0  0  0
   -6.5198   -5.5748  -25.8101 H   0  0  0  0  0  0  0  0  0  0  0  0
   -8.9549   -3.7578  -24.6309 H   0  0  0  0  0  0  0  0  0  0  0  0
   -7.2934   -3.1362  -24.6315 H   0  0  0  0  0  0  0  0  0  0  0  0
   -8.9352   -3.5703  -22.1168 H   0  0  0  0  0  0  0  0  0  0  0  0
   -6.1822   -2.4061  -22.5825 H   0  0  0  0  0  0  0  0  0  0  0  0
   -6.7666   -3.3913  -21.2328 H   0  0  0  0  0  0  0  0  0  0  0  0
  -10.5889   -1.6332  -22.7772 C   0  0  0  0  0  0  0  0  0  0  0  0
  -11.2169   -2.5484  -21.9272 C   0  0  0  0  0  0  0  0  0  0  0  0
  -12.5974   -2.5514  -21.8227 C   0  0  0  0  0  0  0  0  0  0  0  0
  -13.3625   -3.6060  -20.6696 Cl  0  0  0  0  0  0  0  0  0  0  0  0
  -13.4010   -1.6883  -22.5680 C   0  0  0  0  0  0  0  0  0  0  0  0
  -12.7851   -0.7483  -23.3654 C   0  0  0  0  0  0  0  0  0  0  0  0
  -11.3950   -0.6906  -23.4277 C   0  0  0  0  0  0  0  0  0  0  0  0
  -10.7951    0.4844  -24.1212 C   0  0  0  0  0  0  0  0  0  0  0  0
  -11.4694    1.4499  -24.4611 O   0  0  0  0  0  0  0  0  0  0  0  0
  -13.3535   -0.0153  -23.9267 H   0  0  0  0  0  0  0  0  0  0  0  0
  -14.4803   -1.7410  -22.4724 H   0  0  0  0  0  0  0  0  0  0  0  0
  -10.6357   -3.2415  -21.3271 H   0  0  0  0  0  0  0  0  0  0  0  0
   -8.9191   -1.4736  -25.0109 H   0  0  0  0  0  0  0  0  0  0  0  0
   -7.6360   -0.5768  -24.1769 H   0  0  0  0  0  0  0  0  0  0  0  0
   -9.5697    2.2893  -25.1474 H   0  0  0  0  0  0  0  0  0  0  0  0
   -8.1900    1.3041  -25.7491 H   0  0  0  0  0  0  0  0  0  0  0  0
   -9.3017    2.7773  -22.5787 H   0  0  0  0  0  0  0  0  0  0  0  0
   -7.9659    3.8434  -21.0102 H   0  0  0  0  0  0  0  0  0  0  0  0
   -6.8025    2.5516  -21.4767 H   0  0  0  0  0  0  0  0  0  0  0  0
   -6.7419    4.1328  -22.2618 H   0  0  0  0  0  0  0  0  0  0  0  0
  1  2  1  0
  2  3  1  0
  3  4  2  0
  3  5  1  0
  5  6  1  0
  6  7  1  0
  8  7  1  6
  8  9  1  0
  9 10  2  0
  9 11  1  0
 11 12  1  0
 12 13  2  0
 13 14  1  0
 14 15  2  0
 15 16  1  0
 16 17  2  0
 17 18  1  0
 18 19  2  0
 19 20  1  0
 20 21  2  0
 20 22  1  0
 19 23  1  0
 18 24  1  0
 17 25  1  0
 15 26  1  0
 13 27  1  0
 11 28  1  0
 28 29  1  0
 29 30  1  0
 30 31  1  0
 31 32  2  0
 31 33  2  0
 31 34  1  0
 34 35  1  0
 35 36  1  0
 35 37  1  0
 35 38  1  0
 34 39  1  0
 30 40  1  0
 30 41  1  0
 29 42  1  1
 28 43  1  0
 28 44  1  0
  8 45  1  0
 45 46  2  0
 46 47  1  0
 47 48  1  0
 47 49  2  0
 49 50  1  0
 50 51  2  0
 51 52  1  0
 52 53  2  0
 50 54  1  0
 49 55  1  0
 46 56  1  0
  7 57  1  0
  7 58  1  0
  5 59  1  0
  5 60  1  0
  2 61  1  0
  1 62  1  0
  1 63  1  0
  1 64  1  0
 52  6  1  0
 29  8  1  0
 51 45  1  0
 21 12  1  0
 21 16  1  0
M  END
>  <cnnaffinities>  (1) 
[6.67853, 6.94897, 6.68956, 6.90354, 6.86433]

>  <score>  (1) 
6.67853

>  <index>  (1) 
28

>  <Smiles>  (1) 
C(N(C(=O)C(N1C([C@@]2(C(=O)N(c3c(nc(c4c(c(c(c(c34)[H])[H])[H])[H])[H])[H])C([C@@]2(C(S(=O)(=O)N(C([H])([H])[H])[H])([H])[H])[H])([H])[H])c2c(c(Cl)c(c(c2C1=O)[H])[H])[H])([H])[H])([H])[H])[H])([H])([H])[H]

>  <h>  (1) 
<NA>

>  <Training>  (1) 
True

>  <Success>  (1) 
True

>  <enamine_searched>  (1) 
False

>  <enamine_id>  (1) 
nan

$$$$
