
     RDKit          3D

 68 73  0  0  0  0  0  0  0  0999 V2000
   -7.3339    3.4546  -21.8700 C   0  0  0  0  0  0  0  0  0  0  0  0
   -8.2784    3.0152  -22.8801 N   0  0  0  0  0  0  0  0  0  0  0  0
   -7.7867    2.2396  -23.8909 C   0  0  0  0  0  0  0  0  0  0  0  0
   -6.5940    1.9940  -24.0196 O   0  0  0  0  0  0  0  0  0  0  0  0
   -8.8220    1.6761  -24.8592 C   0  0  0  0  0  0  0  0  0  0  0  0
   -9.5015    0.5462  -24.2682 N   0  0  0  0  0  0  0  0  0  0  0  0
   -8.7768   -0.7040  -24.1459 C   0  0  0  0  0  0  0  0  0  0  0  0
   -9.1447   -1.4552  -22.8459 C   0  0  2  0  0  0  0  0  0  0  0  0
   -8.5598   -0.6974  -21.6303 C   0  0  0  0  0  0  0  0  0  0  0  0
   -8.9806    0.3243  -21.1343 O   0  0  0  0  0  0  0  0  0  0  0  0
   -7.4416   -1.3732  -21.1960 N   0  0  0  0  0  0  0  0  0  0  0  0
   -6.6210   -0.8225  -20.1793 C   0  0  0  0  0  0  0  0  0  0  0  0
   -6.9397   -1.0477  -18.8658 C   0  0  0  0  0  0  0  0  0  0  0  0
   -6.2458   -0.5606  -17.8069 N   0  0  0  0  0  0  0  0  0  0  0  0
   -5.2021    0.1900  -18.0773 C   0  0  0  0  0  0  0  0  0  0  0  0
   -4.7631    0.5136  -19.3931 C   0  0  0  0  0  0  0  0  0  0  0  0
   -3.6367    1.3474  -19.6309 C   0  0  0  0  0  0  0  0  0  0  0  0
   -3.2492    1.6493  -20.9072 C   0  0  0  0  0  0  0  0  0  0  0  0
   -3.9692    1.1379  -22.0118 C   0  0  0  0  0  0  0  0  0  0  0  0
   -5.0644    0.3306  -21.8105 C   0  0  0  0  0  0  0  0  0  0  0  0
   -5.4887   -0.0077  -20.4945 C   0  0  0  0  0  0  0  0  0  0  0  0
   -5.6217   -0.0306  -22.6715 H   0  0  0  0  0  0  0  0  0  0  0  0
   -3.6642    1.3895  -23.0227 H   0  0  0  0  0  0  0  0  0  0  0  0
   -2.3878    2.2868  -21.0813 H   0  0  0  0  0  0  0  0  0  0  0  0
   -3.1000    1.7458  -18.7730 H   0  0  0  0  0  0  0  0  0  0  0  0
   -4.6328    0.5816  -17.2329 H   0  0  0  0  0  0  0  0  0  0  0  0
   -7.8104   -1.6545  -18.6296 H   0  0  0  0  0  0  0  0  0  0  0  0
   -7.1412   -2.5691  -21.9567 C   0  0  0  0  0  0  0  0  0  0  0  0
   -8.4326   -2.8327  -22.7456 C   0  0  2  0  0  0  0  0  0  0  0  0
   -8.1530   -3.5945  -24.0451 C   0  0  0  0  0  0  0  0  0  0  0  0
   -9.3556   -3.9433  -24.7505 N   0  0  0  0  0  0  0  0  0  0  0  0
   -9.3486   -4.5691  -25.9799 C   0  0  0  0  0  0  0  0  0  0  0  0
   -8.1592   -4.9502  -26.6239 C   0  0  0  0  0  0  0  0  0  0  0  0
   -8.2007   -5.5631  -27.8714 C   0  0  0  0  0  0  0  0  0  0  0  0
   -9.4080   -5.8381  -28.5013 C   0  0  0  0  0  0  0  0  0  0  0  0
  -10.5853   -5.4934  -27.8461 C   0  0  0  0  0  0  0  0  0  0  0  0
  -10.5655   -4.8530  -26.6179 C   0  0  0  0  0  0  0  0  0  0  0  0
  -11.5009   -4.5717  -26.1384 H   0  0  0  0  0  0  0  0  0  0  0  0
  -11.5389   -5.7518  -28.2908 H   0  0  0  0  0  0  0  0  0  0  0  0
   -9.4308   -6.3195  -29.4720 H   0  0  0  0  0  0  0  0  0  0  0  0
   -7.2663   -5.8448  -28.3483 H   0  0  0  0  0  0  0  0  0  0  0  0
   -7.1966   -4.7848  -26.1443 H   0  0  0  0  0  0  0  0  0  0  0  0
  -10.2534   -3.6971  -24.3671 H   0  0  0  0  0  0  0  0  0  0  0  0
   -7.4941   -2.9902  -24.6917 H   0  0  0  0  0  0  0  0  0  0  0  0
   -7.5863   -4.5083  -23.8074 H   0  0  0  0  0  0  0  0  0  0  0  0
   -9.0684   -3.4774  -22.1359 H   0  0  0  0  0  0  0  0  0  0  0  0
   -6.2894   -2.4138  -22.6388 H   0  0  0  0  0  0  0  0  0  0  0  0
   -6.8907   -3.3995  -21.2882 H   0  0  0  0  0  0  0  0  0  0  0  0
  -10.6546   -1.5067  -22.7407 C   0  0  0  0  0  0  0  0  0  0  0  0
  -11.2814   -2.4365  -21.9073 C   0  0  0  0  0  0  0  0  0  0  0  0
  -12.6552   -2.4142  -21.7615 C   0  0  0  0  0  0  0  0  0  0  0  0
  -13.3952   -3.5325  -20.6593 Cl  0  0  0  0  0  0  0  0  0  0  0  0
  -13.4579   -1.4836  -22.4196 C   0  0  0  0  0  0  0  0  0  0  0  0
  -12.8403   -0.5404  -23.2127 C   0  0  0  0  0  0  0  0  0  0  0  0
  -11.4552   -0.5290  -23.3458 C   0  0  0  0  0  0  0  0  0  0  0  0
  -10.8460    0.6290  -24.0606 C   0  0  0  0  0  0  0  0  0  0  0  0
  -11.5060    1.5986  -24.4075 O   0  0  0  0  0  0  0  0  0  0  0  0
  -13.4027    0.2324  -23.7216 H   0  0  0  0  0  0  0  0  0  0  0  0
  -14.5309   -1.4820  -22.2604 H   0  0  0  0  0  0  0  0  0  0  0  0
  -10.7101   -3.1477  -21.3197 H   0  0  0  0  0  0  0  0  0  0  0  0
   -9.0075   -1.3444  -25.0044 H   0  0  0  0  0  0  0  0  0  0  0  0
   -7.7029   -0.4889  -24.1680 H   0  0  0  0  0  0  0  0  0  0  0  0
   -8.2941    1.3616  -25.7659 H   0  0  0  0  0  0  0  0  0  0  0  0
   -9.5912    2.4148  -25.1090 H   0  0  0  0  0  0  0  0  0  0  0  0
   -9.2355    2.8741  -22.5768 H   0  0  0  0  0  0  0  0  0  0  0  0
   -6.7417    2.5979  -21.5133 H   0  0  0  0  0  0  0  0  0  0  0  0
   -7.8564    3.9385  -21.0391 H   0  0  0  0  0  0  0  0  0  0  0  0
   -6.6406    4.1803  -22.3036 H   0  0  0  0  0  0  0  0  0  0  0  0
  1  2  1  0
  2  3  1  0
  3  4  2  0
  3  5  1  0
  5  6  1  0
  6  7  1  0
  8  7  1  6
  8  9  1  0
  9 10  2  0
  9 11  1  0
 11 12  1  0
 12 13  2  0
 13 14  1  0
 14 15  2  0
 15 16  1  0
 16 17  2  0
 17 18  1  0
 18 19  2  0
 19 20  1  0
 20 21  2  0
 20 22  1  0
 19 23  1  0
 18 24  1  0
 17 25  1  0
 15 26  1  0
 13 27  1  0
 11 28  1  0
 28 29  1  0
 29 30  1  0
 30 31  1  0
 31 32  1  0
 32 33  2  0
 33 34  1  0
 34 35  2  0
 35 36  1  0
 36 37  2  0
 37 38  1  0
 36 39  1  0
 35 40  1  0
 34 41  1  0
 33 42  1  0
 31 43  1  0
 30 44  1  0
 30 45  1  0
 29 46  1  1
 28 47  1  0
 28 48  1  0
  8 49  1  0
 49 50  2  0
 50 51  1  0
 51 52  1  0
 51 53  2  0
 53 54  1  0
 54 55  2  0
 55 56  1  0
 56 57  2  0
 54 58  1  0
 53 59  1  0
 50 60  1  0
  7 61  1  0
  7 62  1  0
  5 63  1  0
  5 64  1  0
  2 65  1  0
  1 66  1  0
  1 67  1  0
  1 68  1  0
 56  6  1  0
 29  8  1  0
 37 32  1  0
 55 49  1  0
 21 12  1  0
 21 16  1  0
M  END
>  <cnnaffinities>  (1) 
[6.56003, 6.72819]

>  <score>  (1) 
6.56003

>  <index>  (1) 
23

>  <Smiles>  (1) 
C(N(C(=O)C(N1C([C@@]2(C(=O)N(c3c(nc(c4c(c(c(c(c34)[H])[H])[H])[H])[H])[H])C([C@@]2(C(N(c2c(c(c(c(c2[H])[H])[H])[H])[H])[H])([H])[H])[H])([H])[H])c2c(c(Cl)c(c(c2C1=O)[H])[H])[H])([H])[H])([H])[H])[H])([H])([H])[H]

>  <h>  (1) 
<NA>

>  <Training>  (1) 
True

>  <Success>  (1) 
True

>  <enamine_searched>  (1) 
False

>  <enamine_id>  (1) 
nan

$$$$
