
     RDKit          3D

 47 50  0  0  0  0  0  0  0  0999 V2000
   -8.4981    0.7365  -21.4579 O   0  0  0  0  0  0  0  0  0  0  0  0
   -8.5220   -0.4353  -21.7869 C   0  0  0  0  0  0  0  0  0  0  0  0
   -7.4713   -1.4225  -21.2706 C   0  0  0  0  0  0  0  0  0  0  0  0
   -6.6061   -0.8342  -20.1910 C   0  0  0  0  0  0  0  0  0  0  0  0
   -6.9124   -1.0516  -18.8763 C   0  0  0  0  0  0  0  0  0  0  0  0
   -6.2382   -0.5507  -17.8044 N   0  0  0  0  0  0  0  0  0  0  0  0
   -5.1965    0.2052  -18.0717 C   0  0  0  0  0  0  0  0  0  0  0  0
   -4.7578    0.5208  -19.3852 C   0  0  0  0  0  0  0  0  0  0  0  0
   -3.6267    1.3496  -19.6166 C   0  0  0  0  0  0  0  0  0  0  0  0
   -3.2330    1.6442  -20.8942 C   0  0  0  0  0  0  0  0  0  0  0  0
   -3.9497    1.1259  -21.9952 C   0  0  0  0  0  0  0  0  0  0  0  0
   -5.0503    0.3246  -21.7975 C   0  0  0  0  0  0  0  0  0  0  0  0
   -5.4821   -0.0033  -20.4829 C   0  0  0  0  0  0  0  0  0  0  0  0
   -5.6027   -0.0549  -22.6523 H   0  0  0  0  0  0  0  0  0  0  0  0
   -3.6272    1.3688  -23.0062 H   0  0  0  0  0  0  0  0  0  0  0  0
   -2.3724    2.2882  -21.0689 H   0  0  0  0  0  0  0  0  0  0  0  0
   -3.0923    1.7486  -18.7564 H   0  0  0  0  0  0  0  0  0  0  0  0
   -4.6391    0.6118  -17.2249 H   0  0  0  0  0  0  0  0  0  0  0  0
   -7.7629   -1.6841  -18.6161 H   0  0  0  0  0  0  0  0  0  0  0  0
   -6.8792   -1.7793  -22.1227 H   0  0  0  0  0  0  0  0  0  0  0  0
   -8.0074   -2.2935  -20.8708 H   0  0  0  0  0  0  0  0  0  0  0  0
   -9.5121   -0.9469  -22.5901 N   0  0  0  0  0  0  0  0  0  0  0  0
  -10.6193   -0.0577  -22.9152 C   0  0  0  0  0  0  0  0  0  0  0  0
  -11.9309   -0.8041  -22.7211 C   0  0  0  0  0  0  0  0  0  0  0  0
  -11.9956   -2.1060  -23.5133 C   0  0  0  0  0  0  0  0  0  0  0  0
  -10.7669   -2.9553  -23.1718 C   0  0  0  0  0  0  0  0  0  0  0  0
   -9.4468   -2.1947  -23.3630 C   0  0  1  0  0  0  0  0  0  0  0  0
   -9.0944   -1.9582  -24.8395 C   0  0  0  0  0  0  0  0  0  0  0  0
   -9.7433   -2.6108  -25.8960 C   0  0  0  0  0  0  0  0  0  0  0  0
   -9.3300   -2.4365  -27.2145 C   0  0  0  0  0  0  0  0  0  0  0  0
   -8.3418   -1.5049  -27.5126 C   0  0  0  0  0  0  0  0  0  0  0  0
   -7.7006   -0.8321  -26.4748 C   0  0  0  0  0  0  0  0  0  0  0  0
   -8.0458   -1.0848  -25.1513 C   0  0  0  0  0  0  0  0  0  0  0  0
   -7.5365   -0.5311  -24.3606 H   0  0  0  0  0  0  0  0  0  0  0  0
   -6.9248   -0.1021  -26.6922 H   0  0  0  0  0  0  0  0  0  0  0  0
   -8.0643   -1.3162  -28.5462 H   0  0  0  0  0  0  0  0  0  0  0  0
   -9.7994   -3.0221  -28.0084 H   0  0  0  0  0  0  0  0  0  0  0  0
  -10.5826   -3.2760  -25.7102 H   0  0  0  0  0  0  0  0  0  0  0  0
   -8.6409   -2.7874  -22.9132 H   0  0  0  0  0  0  0  0  0  0  0  0
  -10.8368   -3.2136  -22.1107 H   0  0  0  0  0  0  0  0  0  0  0  0
  -10.7390   -3.8981  -23.7324 H   0  0  0  0  0  0  0  0  0  0  0  0
  -12.9098   -2.6476  -23.2396 H   0  0  0  0  0  0  0  0  0  0  0  0
  -12.0592   -1.9107  -24.5872 H   0  0  0  0  0  0  0  0  0  0  0  0
  -11.9667   -1.1063  -21.6800 H   0  0  0  0  0  0  0  0  0  0  0  0
  -12.7941   -0.1491  -22.8851 H   0  0  0  0  0  0  0  0  0  0  0  0
  -10.5471    0.8057  -22.2481 H   0  0  0  0  0  0  0  0  0  0  0  0
  -10.4859    0.3051  -23.9424 H   0  0  0  0  0  0  0  0  0  0  0  0
  1  2  2  0
  2  3  1  0
  3  4  1  0
  4  5  2  0
  5  6  1  0
  6  7  2  0
  7  8  1  0
  8  9  2  0
  9 10  1  0
 10 11  2  0
 11 12  1  0
 12 13  2  0
 12 14  1  0
 11 15  1  0
 10 16  1  0
  9 17  1  0
  7 18  1  0
  5 19  1  0
  3 20  1  0
  3 21  1  0
  2 22  1  0
 22 23  1  0
 23 24  1  0
 24 25  1  0
 25 26  1  0
 26 27  1  0
 27 28  1  0
 28 29  2  0
 29 30  1  0
 30 31  2  0
 31 32  1  0
 32 33  2  0
 33 34  1  0
 32 35  1  0
 31 36  1  0
 30 37  1  0
 29 38  1  0
 27 39  1  1
 26 40  1  0
 26 41  1  0
 25 42  1  0
 25 43  1  0
 24 44  1  0
 24 45  1  0
 23 46  1  0
 23 47  1  0
 13  4  1  0
 27 22  1  0
 33 28  1  0
 13  8  1  0
M  END
>  <cnnaffinities>  (1) 
[5.03309, 5.2529, 5.27416, 5.51038, 5.51253]

>  <score>  (1) 
5.03309

>  <index>  (1) 
36

>  <Smiles>  (1) 
O=C(C(c1c(nc(c2c(c(c(c(c12)[H])[H])[H])[H])[H])[H])([H])[H])N1C(C(C(C([C@]1(c1c(c(c(c(c1[H])[H])[H])[H])[H])[H])([H])[H])([H])[H])([H])[H])([H])[H]

>  <h>  (1) 
<NA>

>  <Training>  (1) 
True

>  <Success>  (1) 
True

>  <enamine_searched>  (1) 
False

>  <enamine_id>  (1) 
nan

$$$$
