
     RDKit          3D

 44 47  0  0  0  0  0  0  0  0999 V2000
  -10.1000   -6.0158  -27.5600 C   0  0  0  0  0  0  0  0  0  0  0  0
   -8.9758   -5.3145  -26.7880 C   0  0  0  0  0  0  0  0  0  0  0  0
   -9.2252   -5.5330  -25.0302 S   0  0  0  0  0  0  0  0  0  0  0  0
   -9.0507   -6.9344  -24.7202 O   0  0  0  0  0  0  0  0  0  0  0  0
  -10.4727   -4.8436  -24.7078 O   0  0  0  0  0  0  0  0  0  0  0  0
   -7.9502   -4.7103  -24.2682 N   0  0  0  0  0  0  0  0  0  0  0  0
   -8.0611   -4.6983  -22.7657 C   0  0  0  0  0  0  0  0  0  0  0  0
   -8.0650   -3.1563  -22.7628 C   0  0  0  0  0  0  0  0  0  0  0  0
   -7.9914   -3.2243  -24.3125 C   0  0  0  0  0  0  0  0  0  0  0  0
   -7.0645   -2.8346  -24.7289 H   0  0  0  0  0  0  0  0  0  0  0  0
   -8.8538   -2.7964  -24.8362 H   0  0  0  0  0  0  0  0  0  0  0  0
   -6.8676   -2.5275  -22.0601 C   0  0  0  0  0  0  0  0  0  0  0  0
   -5.7044   -2.8115  -22.2153 O   0  0  0  0  0  0  0  0  0  0  0  0
   -7.3687   -1.5408  -21.2106 N   0  0  0  0  0  0  0  0  0  0  0  0
   -6.6003   -0.8680  -20.1984 C   0  0  0  0  0  0  0  0  0  0  0  0
   -6.9122   -1.0640  -18.8752 C   0  0  0  0  0  0  0  0  0  0  0  0
   -6.2211   -0.5464  -17.8256 N   0  0  0  0  0  0  0  0  0  0  0  0
   -5.1823    0.2048  -18.0943 C   0  0  0  0  0  0  0  0  0  0  0  0
   -4.7511    0.5211  -19.4116 C   0  0  0  0  0  0  0  0  0  0  0  0
   -3.6187    1.3563  -19.6361 C   0  0  0  0  0  0  0  0  0  0  0  0
   -3.2269    1.6608  -20.9091 C   0  0  0  0  0  0  0  0  0  0  0  0
   -3.9566    1.1466  -22.0045 C   0  0  0  0  0  0  0  0  0  0  0  0
   -5.0507    0.3392  -21.8116 C   0  0  0  0  0  0  0  0  0  0  0  0
   -5.4785   -0.0159  -20.5013 C   0  0  0  0  0  0  0  0  0  0  0  0
   -5.5949   -0.0469  -22.6663 H   0  0  0  0  0  0  0  0  0  0  0  0
   -3.6465    1.3963  -23.0144 H   0  0  0  0  0  0  0  0  0  0  0  0
   -2.3687    2.3054  -21.0880 H   0  0  0  0  0  0  0  0  0  0  0  0
   -3.0820    1.7539  -18.7776 H   0  0  0  0  0  0  0  0  0  0  0  0
   -4.6289    0.6073  -17.2442 H   0  0  0  0  0  0  0  0  0  0  0  0
   -7.7585   -1.6869  -18.6015 H   0  0  0  0  0  0  0  0  0  0  0  0
   -8.7643   -1.3867  -21.4062 C   0  0  0  0  0  0  0  0  0  0  0  0
   -9.4439   -0.4683  -21.0101 O   0  0  0  0  0  0  0  0  0  0  0  0
   -9.1711   -2.4552  -22.1684 N   0  0  0  0  0  0  0  0  0  0  0  0
  -10.5651   -2.7135  -22.4920 C   0  0  0  0  0  0  0  0  0  0  0  0
  -10.8343   -3.7567  -22.2768 H   0  0  0  0  0  0  0  0  0  0  0  0
  -10.7665   -2.5090  -23.5509 H   0  0  0  0  0  0  0  0  0  0  0  0
  -11.1526   -2.0393  -21.8672 H   0  0  0  0  0  0  0  0  0  0  0  0
   -7.1779   -5.1303  -22.2968 H   0  0  0  0  0  0  0  0  0  0  0  0
   -8.9678   -5.1515  -22.3563 H   0  0  0  0  0  0  0  0  0  0  0  0
   -8.9682   -4.2336  -26.9651 H   0  0  0  0  0  0  0  0  0  0  0  0
   -7.9879   -5.7282  -27.0104 H   0  0  0  0  0  0  0  0  0  0  0  0
   -9.9516   -5.8836  -28.6367 H   0  0  0  0  0  0  0  0  0  0  0  0
  -11.0776   -5.6022  -27.2890 H   0  0  0  0  0  0  0  0  0  0  0  0
  -10.1068   -7.0889  -27.3380 H   0  0  0  0  0  0  0  0  0  0  0  0
  1  2  1  0
  2  3  1  0
  3  4  2  0
  3  5  2  0
  3  6  1  0
  6  7  1  0
  7  8  1  0
  8  9  1  0
  9 10  1  0
  9 11  1  0
  8 12  1  0
 12 13  2  0
 12 14  1  0
 14 15  1  0
 15 16  2  0
 16 17  1  0
 17 18  2  0
 18 19  1  0
 19 20  2  0
 20 21  1  0
 21 22  2  0
 22 23  1  0
 23 24  2  0
 23 25  1  0
 22 26  1  0
 21 27  1  0
 20 28  1  0
 18 29  1  0
 16 30  1  0
 14 31  1  0
 31 32  2  0
 31 33  1  0
 33 34  1  0
 34 35  1  0
 34 36  1  0
 34 37  1  0
  7 38  1  0
  7 39  1  0
  2 40  1  0
  2 41  1  0
  1 42  1  0
  1 43  1  0
  1 44  1  0
  9  6  1  0
 24 15  1  0
 33  8  1  0
 24 19  1  0
M  END
>  <cnnaffinities>  (1) 
[5.36909, 5.37184, 5.38035, 5.4033, 5.39372, 5.35691, 5.3847, 5.39211, 5.31055, 5.38269, 5.38765, 5.38517, 5.2838, 5.28403, 5.28387, 5.28631]

>  <score>  (1) 
5.36909

>  <index>  (1) 
7

>  <Smiles>  (1) 
C(C(S(=O)(=O)N1C(C2(C1([H])[H])C(=O)N(c1c(nc(c3c(c(c(c(c13)[H])[H])[H])[H])[H])[H])C(=O)N2C([H])([H])[H])([H])[H])([H])[H])([H])([H])[H]

>  <h>  (1) 
<NA>

>  <Training>  (1) 
True

>  <Success>  (1) 
True

>  <enamine_searched>  (1) 
False

>  <enamine_id>  (1) 
nan

$$$$
