
     RDKit          3D

 65 70  0  0  0  0  0  0  0  0999 V2000
   -6.0518   -7.6627  -25.3504 O   0  0  0  0  0  0  0  0  0  0  0  0
   -5.9950   -7.2604  -24.1980 C   0  0  0  0  0  0  0  0  0  0  0  0
   -7.1761   -6.6148  -23.4891 C   0  0  0  0  0  0  0  0  0  0  0  0
   -7.1103   -5.1313  -23.6936 N   0  0  1  0  0  0  0  0  0  0  0  0
   -7.2828   -4.8361  -25.1990 C   0  0  0  0  0  0  0  0  0  0  0  0
   -7.2110   -3.3642  -25.4752 C   0  0  0  0  0  0  0  0  0  0  0  0
   -6.8351   -2.9190  -26.7402 C   0  0  0  0  0  0  0  0  0  0  0  0
   -6.7565   -1.5661  -27.0358 C   0  0  0  0  0  0  0  0  0  0  0  0
   -7.0604   -0.6454  -26.0389 C   0  0  0  0  0  0  0  0  0  0  0  0
   -6.9516    1.0610  -26.3796 Cl  0  0  0  0  0  0  0  0  0  0  0  0
   -7.4485   -1.0674  -24.7775 C   0  0  0  0  0  0  0  0  0  0  0  0
   -7.5371   -2.4336  -24.4870 C   0  0  0  0  0  0  0  0  0  0  0  0
   -7.9463   -2.8484  -23.0855 C   0  0  2  0  0  0  0  0  0  0  0  0
   -9.1845   -2.1082  -22.5642 C   0  0  0  0  0  0  0  0  0  0  0  0
   -8.7143   -1.1450  -21.4701 C   0  0  0  0  0  0  0  0  0  0  0  0
   -7.3179   -1.4935  -21.2401 N   0  0  0  0  0  0  0  0  0  0  0  0
   -6.5524   -0.8930  -20.2014 C   0  0  0  0  0  0  0  0  0  0  0  0
   -6.8997   -1.0676  -18.8799 C   0  0  0  0  0  0  0  0  0  0  0  0
   -6.2283   -0.5414  -17.8239 N   0  0  0  0  0  0  0  0  0  0  0  0
   -5.1835    0.2070  -18.0885 C   0  0  0  0  0  0  0  0  0  0  0  0
   -4.7359    0.5115  -19.4064 C   0  0  0  0  0  0  0  0  0  0  0  0
   -3.6154    1.3551  -19.6336 C   0  0  0  0  0  0  0  0  0  0  0  0
   -3.2266    1.6615  -20.9084 C   0  0  0  0  0  0  0  0  0  0  0  0
   -3.9460    1.1470  -22.0110 C   0  0  0  0  0  0  0  0  0  0  0  0
   -5.0289    0.3251  -21.8203 C   0  0  0  0  0  0  0  0  0  0  0  0
   -5.4436   -0.0337  -20.5044 C   0  0  0  0  0  0  0  0  0  0  0  0
   -5.5759   -0.0523  -22.6830 H   0  0  0  0  0  0  0  0  0  0  0  0
   -3.6346    1.4025  -23.0192 H   0  0  0  0  0  0  0  0  0  0  0  0
   -2.3706    2.3080  -21.0826 H   0  0  0  0  0  0  0  0  0  0  0  0
   -3.0855    1.7562  -18.7723 H   0  0  0  0  0  0  0  0  0  0  0  0
   -4.6331    0.6129  -17.2381 H   0  0  0  0  0  0  0  0  0  0  0  0
   -7.7566   -1.6836  -18.6102 H   0  0  0  0  0  0  0  0  0  0  0  0
   -6.8417   -2.4635  -22.0968 C   0  0  0  0  0  0  0  0  0  0  0  0
   -5.7479   -2.9998  -22.0864 O   0  0  0  0  0  0  0  0  0  0  0  0
   -9.2953   -1.3265  -20.5742 H   0  0  0  0  0  0  0  0  0  0  0  0
   -8.8320   -0.0860  -21.7397 H   0  0  0  0  0  0  0  0  0  0  0  0
   -9.7367   -1.6131  -23.3668 H   0  0  0  0  0  0  0  0  0  0  0  0
   -9.8623   -2.8450  -22.1224 H   0  0  0  0  0  0  0  0  0  0  0  0
   -8.1725   -4.3626  -22.9504 C   0  0  0  0  0  0  0  0  0  0  0  0
   -8.1593   -4.6151  -21.8856 H   0  0  0  0  0  0  0  0  0  0  0  0
   -9.1524   -4.6282  -23.3617 H   0  0  0  0  0  0  0  0  0  0  0  0
   -7.6767   -0.3191  -24.0216 H   0  0  0  0  0  0  0  0  0  0  0  0
   -6.4574   -1.2218  -28.0195 H   0  0  0  0  0  0  0  0  0  0  0  0
   -6.5892   -3.6491  -27.5079 H   0  0  0  0  0  0  0  0  0  0  0  0
   -6.5217   -5.3826  -25.7502 H   0  0  0  0  0  0  0  0  0  0  0  0
   -8.2498   -5.2587  -25.5065 H   0  0  0  0  0  0  0  0  0  0  0  0
   -6.1872   -4.7464  -23.3649 H   0  0  0  0  0  0  0  0  0  0  0  0
   -8.0965   -7.0232  -23.9151 H   0  0  0  0  0  0  0  0  0  0  0  0
   -7.1919   -6.8494  -22.4264 H   0  0  0  0  0  0  0  0  0  0  0  0
   -4.8480   -7.2989  -23.4776 N   0  0  0  0  0  0  0  0  0  0  0  0
   -3.6961   -7.9496  -24.0684 C   0  0  0  0  0  0  0  0  0  0  0  0
   -2.4233   -7.6160  -23.3119 C   0  0  1  0  0  0  0  0  0  0  0  0
   -1.1179   -8.1156  -23.9930 C   0  0  0  0  0  0  0  0  0  0  0  0
   -0.6429   -6.6566  -24.1659 C   0  0  1  0  0  0  0  0  0  0  0  0
   -0.5414   -6.2590  -25.4929 F   0  0  0  0  0  0  0  0  0  0  0  0
   -1.9243   -6.1471  -23.4722 C   0  0  0  0  0  0  0  0  0  0  0  0
   -1.7796   -5.5910  -22.5382 H   0  0  0  0  0  0  0  0  0  0  0  0
   -2.5388   -5.5243  -24.1344 H   0  0  0  0  0  0  0  0  0  0  0  0
    0.3129   -6.3947  -23.6956 H   0  0  0  0  0  0  0  0  0  0  0  0
   -1.2679   -8.6406  -24.9445 H   0  0  0  0  0  0  0  0  0  0  0  0
   -0.4789   -8.7516  -23.3714 H   0  0  0  0  0  0  0  0  0  0  0  0
   -2.5420   -7.9449  -22.2665 H   0  0  0  0  0  0  0  0  0  0  0  0
   -3.8753   -9.0345  -24.0934 H   0  0  0  0  0  0  0  0  0  0  0  0
   -3.6424   -7.6165  -25.1137 H   0  0  0  0  0  0  0  0  0  0  0  0
   -4.7960   -6.7864  -22.6131 H   0  0  0  0  0  0  0  0  0  0  0  0
  1  2  2  0
  2  3  1  0
  3  4  1  0
  4  5  1  0
  5  6  1  0
  6  7  2  0
  7  8  1  0
  8  9  2  0
  9 10  1  0
  9 11  1  0
 11 12  2  0
 12 13  1  0
 13 14  1  1
 14 15  1  0
 15 16  1  0
 16 17  1  0
 17 18  2  0
 18 19  1  0
 19 20  2  0
 20 21  1  0
 21 22  2  0
 22 23  1  0
 23 24  2  0
 24 25  1  0
 25 26  2  0
 25 27  1  0
 24 28  1  0
 23 29  1  0
 22 30  1  0
 20 31  1  0
 18 32  1  0
 16 33  1  0
 33 34  2  0
 15 35  1  0
 15 36  1  0
 14 37  1  0
 14 38  1  0
 13 39  1  0
 39 40  1  0
 39 41  1  0
 11 42  1  0
  8 43  1  0
  7 44  1  0
  5 45  1  0
  5 46  1  0
  4 47  1  1
  3 48  1  0
  3 49  1  0
  2 50  1  0
 50 51  1  0
 51 52  1  0
 52 53  1  0
 53 54  1  0
 54 55  1  0
 54 56  1  0
 56 57  1  0
 56 58  1  0
 54 59  1  1
 53 60  1  0
 53 61  1  0
 52 62  1  1
 51 63  1  0
 51 64  1  0
 50 65  1  0
 39  4  1  0
 56 52  1  0
 12  6  1  0
 33 13  1  0
 26 17  1  0
 26 21  1  0
M  CHG  1   4   1
M  END
>  <cnnaffinities>  (1) 
[6.41983, 6.04117, 6.33289, 6.00923]

>  <score>  (1) 
6.41983

>  <index>  (1) 
24

>  <Smiles>  (1) 
O=C(C([N@+]1(C(c2c(c(c(Cl)c(c2[C@@]2(C(C(N(c3c(nc(c4c(c(c(c(c34)[H])[H])[H])[H])[H])[H])C2=O)([H])[H])([H])[H])C1([H])[H])[H])[H])[H])([H])[H])[H])([H])[H])N(C([C@]1(C([C@@](F)(C1([H])[H])[H])([H])[H])[H])([H])[H])[H]

>  <h>  (1) 
<NA>

>  <Training>  (1) 
True

>  <Success>  (1) 
True

>  <enamine_searched>  (1) 
False

>  <enamine_id>  (1) 
nan

$$$$
