
     RDKit          3D

 42 45  0  0  0  0  0  0  0  0999 V2000
  -12.8254   -2.1536  -22.6989 C   0  0  0  0  0  0  0  0  0  0  0  0
  -11.3998   -2.4008  -22.8872 N   0  0  0  0  0  0  0  0  0  0  0  0
  -10.4129   -1.7136  -22.0850 C   0  0  0  0  0  0  0  0  0  0  0  0
   -9.2085   -1.3036  -22.9390 C   0  0  1  0  0  0  0  0  0  0  0  0
   -8.1747   -0.6017  -22.0580 C   0  0  0  0  0  0  0  0  0  0  0  0
   -8.0471    0.6067  -22.0662 O   0  0  0  0  0  0  0  0  0  0  0  0
   -7.4073   -1.3707  -21.2068 N   0  0  0  0  0  0  0  0  0  0  0  0
   -6.5903   -0.8116  -20.1847 C   0  0  0  0  0  0  0  0  0  0  0  0
   -6.8812   -1.0548  -18.8631 C   0  0  0  0  0  0  0  0  0  0  0  0
   -6.1996   -0.5444  -17.8077 N   0  0  0  0  0  0  0  0  0  0  0  0
   -5.1632    0.2219  -18.0662 C   0  0  0  0  0  0  0  0  0  0  0  0
   -4.7265    0.5291  -19.3854 C   0  0  0  0  0  0  0  0  0  0  0  0
   -3.5922    1.3532  -19.6242 C   0  0  0  0  0  0  0  0  0  0  0  0
   -3.1818    1.6142  -20.9066 C   0  0  0  0  0  0  0  0  0  0  0  0
   -3.8824    1.0571  -21.9985 C   0  0  0  0  0  0  0  0  0  0  0  0
   -4.9801    0.2580  -21.7915 C   0  0  0  0  0  0  0  0  0  0  0  0
   -5.4462   -0.0097  -20.4777 C   0  0  0  0  0  0  0  0  0  0  0  0
   -5.5097   -0.1702  -22.6334 H   0  0  0  0  0  0  0  0  0  0  0  0
   -3.5513    1.2625  -23.0111 H   0  0  0  0  0  0  0  0  0  0  0  0
   -2.3170    2.2459  -21.0953 H   0  0  0  0  0  0  0  0  0  0  0  0
   -3.0518    1.7725  -18.7784 H   0  0  0  0  0  0  0  0  0  0  0  0
   -4.6034    0.6262  -17.2182 H   0  0  0  0  0  0  0  0  0  0  0  0
   -7.7357   -1.6720  -18.5943 H   0  0  0  0  0  0  0  0  0  0  0  0
   -7.6044   -2.3573  -21.1464 H   0  0  0  0  0  0  0  0  0  0  0  0
   -8.6929   -2.4579  -23.7624 C   0  0  0  0  0  0  0  0  0  0  0  0
   -7.3838   -2.4641  -24.2505 C   0  0  0  0  0  0  0  0  0  0  0  0
   -6.9370   -3.5292  -25.0115 C   0  0  0  0  0  0  0  0  0  0  0  0
   -5.2975   -3.5319  -25.5855 Cl  0  0  0  0  0  0  0  0  0  0  0  0
   -7.7786   -4.5906  -25.3287 C   0  0  0  0  0  0  0  0  0  0  0  0
   -9.0908   -4.5548  -24.8809 C   0  0  0  0  0  0  0  0  0  0  0  0
   -9.5641   -3.4935  -24.1015 C   0  0  0  0  0  0  0  0  0  0  0  0
  -11.0221   -3.4382  -23.7080 C   0  0  0  0  0  0  0  0  0  0  0  0
  -11.8390   -4.2379  -24.1333 O   0  0  0  0  0  0  0  0  0  0  0  0
   -9.7580   -5.3619  -25.1532 H   0  0  0  0  0  0  0  0  0  0  0  0
   -7.4021   -5.4151  -25.9302 H   0  0  0  0  0  0  0  0  0  0  0  0
   -6.7121   -1.6370  -24.0438 H   0  0  0  0  0  0  0  0  0  0  0  0
   -9.5554   -0.5310  -23.6290 H   0  0  0  0  0  0  0  0  0  0  0  0
  -10.8668   -0.8200  -21.6592 H   0  0  0  0  0  0  0  0  0  0  0  0
  -10.0662   -2.3237  -21.2405 H   0  0  0  0  0  0  0  0  0  0  0  0
  -12.9780   -1.3456  -21.9824 H   0  0  0  0  0  0  0  0  0  0  0  0
  -13.3647   -3.0341  -22.3388 H   0  0  0  0  0  0  0  0  0  0  0  0
  -13.2909   -1.8462  -23.6370 H   0  0  0  0  0  0  0  0  0  0  0  0
  1  2  1  0
  2  3  1  0
  3  4  1  0
  4  5  1  0
  5  6  2  0
  5  7  1  0
  7  8  1  0
  8  9  2  0
  9 10  1  0
 10 11  2  0
 11 12  1  0
 12 13  2  0
 13 14  1  0
 14 15  2  0
 15 16  1  0
 16 17  2  0
 16 18  1  0
 15 19  1  0
 14 20  1  0
 13 21  1  0
 11 22  1  0
  9 23  1  0
  7 24  1  0
  4 25  1  0
 25 26  2  0
 26 27  1  0
 27 28  1  0
 27 29  2  0
 29 30  1  0
 30 31  2  0
 31 32  1  0
 32 33  2  0
 30 34  1  0
 29 35  1  0
 26 36  1  0
  4 37  1  6
  3 38  1  0
  3 39  1  0
  1 40  1  0
  1 41  1  0
  1 42  1  0
 32  2  1  0
 17  8  1  0
 31 25  1  0
 17 12  1  0
M  END
>  <cnnaffinities>  (1) 
[5.50472]

>  <score>  (1) 
5.50472

>  <index>  (1) 
58

>  <Smiles>  (1) 
C(N1C([C@@](C(=O)N(c2c(nc(c3c(c(c(c(c23)[H])[H])[H])[H])[H])[H])[H])(c2c(c(Cl)c(c(c2C1=O)[H])[H])[H])[H])([H])[H])([H])([H])[H]

>  <h>  (1) 
<NA>

>  <Training>  (1) 
True

>  <Success>  (1) 
True

>  <enamine_searched>  (1) 
False

>  <enamine_id>  (1) 
nan

$$$$
