
     RDKit          3D

 62 67  0  0  0  0  0  0  0  0999 V2000
  -11.5677    2.3867  -21.9901 C   0  0  0  0  0  0  0  0  0  0  0  0
  -11.8816    2.3227  -21.9516 C   0  0  0  0  0  0  0  0  0  0  0  0
  -11.9822    2.7312  -23.3469 N   0  0  0  0  0  0  0  0  0  0  0  0
  -12.8781    3.6697  -23.6057 N   0  0  0  0  0  0  0  0  0  0  0  0
  -12.7022    3.9871  -24.8909 C   0  0  0  0  0  0  0  0  0  0  0  0
  -11.6313    3.2609  -25.4361 C   0  0  0  0  0  0  0  0  0  0  0  0
  -11.2238    2.4166  -24.4243 C   0  0  0  0  0  0  0  0  0  0  0  0
  -10.1393    1.3679  -24.4318 C   0  0  0  0  0  0  0  0  0  0  0  0
  -10.5532   -0.0360  -24.2627 N   0  0  0  0  0  0  0  0  0  0  0  0
   -9.5092   -1.0411  -24.0542 C   0  0  0  0  0  0  0  0  0  0  0  0
   -9.6392   -1.8064  -22.6995 C   0  0  2  0  0  0  0  0  0  0  0  0
   -9.0538   -0.9053  -21.5741 C   0  0  0  0  0  0  0  0  0  0  0  0
   -9.5957    0.0145  -20.9915 O   0  0  0  0  0  0  0  0  0  0  0  0
   -7.7516   -1.2808  -21.3416 N   0  0  0  0  0  0  0  0  0  0  0  0
   -7.0029   -0.7572  -20.2603 C   0  0  0  0  0  0  0  0  0  0  0  0
   -7.3774   -0.9805  -18.9599 C   0  0  0  0  0  0  0  0  0  0  0  0
   -6.6547   -0.5829  -17.8812 N   0  0  0  0  0  0  0  0  0  0  0  0
   -5.5417    0.0771  -18.1057 C   0  0  0  0  0  0  0  0  0  0  0  0
   -5.0514    0.4018  -19.4044 C   0  0  0  0  0  0  0  0  0  0  0  0
   -3.8653    1.1549  -19.6216 C   0  0  0  0  0  0  0  0  0  0  0  0
   -3.4441    1.4313  -20.8943 C   0  0  0  0  0  0  0  0  0  0  0  0
   -4.1860    0.9830  -22.0102 C   0  0  0  0  0  0  0  0  0  0  0  0
   -5.3442    0.2716  -21.8269 C   0  0  0  0  0  0  0  0  0  0  0  0
   -5.7974   -0.0375  -20.5191 C   0  0  0  0  0  0  0  0  0  0  0  0
   -5.9383   -0.0447  -22.6789 H   0  0  0  0  0  0  0  0  0  0  0  0
   -3.8500    1.2136  -23.0163 H   0  0  0  0  0  0  0  0  0  0  0  0
   -2.5416    2.0133  -21.0608 H   0  0  0  0  0  0  0  0  0  0  0  0
   -3.3111    1.5222  -18.7621 H   0  0  0  0  0  0  0  0  0  0  0  0
   -4.9685    0.3870  -17.2303 H   0  0  0  0  0  0  0  0  0  0  0  0
   -8.2977   -1.5172  -18.7405 H   0  0  0  0  0  0  0  0  0  0  0  0
   -7.3309   -2.4404  -22.1054 C   0  0  0  0  0  0  0  0  0  0  0  0
   -8.6720   -3.0216  -22.5799 C   0  0  2  0  0  0  0  0  0  0  0  0
   -8.6042   -3.9632  -23.7742 C   0  0  0  0  0  0  0  0  0  0  0  0
   -8.2136   -3.4579  -24.6636 H   0  0  0  0  0  0  0  0  0  0  0  0
   -7.9502   -4.8214  -23.5714 H   0  0  0  0  0  0  0  0  0  0  0  0
   -9.6041   -4.3489  -24.0103 H   0  0  0  0  0  0  0  0  0  0  0  0
   -9.0382   -3.5918  -21.7240 H   0  0  0  0  0  0  0  0  0  0  0  0
   -6.6766   -2.1759  -22.9499 H   0  0  0  0  0  0  0  0  0  0  0  0
   -6.7758   -3.1308  -21.4575 H   0  0  0  0  0  0  0  0  0  0  0  0
  -11.1034   -2.1706  -22.4792 C   0  0  0  0  0  0  0  0  0  0  0  0
  -11.5062   -3.1362  -21.5489 C   0  0  0  0  0  0  0  0  0  0  0  0
  -12.8389   -3.2498  -21.1938 C   0  0  0  0  0  0  0  0  0  0  0  0
  -13.1953   -4.0865  -20.2041 F   0  0  0  0  0  0  0  0  0  0  0  0
  -13.8499   -2.5196  -21.7961 C   0  0  0  0  0  0  0  0  0  0  0  0
  -13.4777   -1.6455  -22.7916 C   0  0  0  0  0  0  0  0  0  0  0  0
  -12.1319   -1.4791  -23.1204 C   0  0  0  0  0  0  0  0  0  0  0  0
  -11.8659   -0.3820  -24.0802 C   0  0  0  0  0  0  0  0  0  0  0  0
  -12.8225    0.2344  -24.5295 O   0  0  0  0  0  0  0  0  0  0  0  0
  -14.2087   -1.0664  -23.3435 H   0  0  0  0  0  0  0  0  0  0  0  0
  -14.8753   -2.6695  -21.4817 H   0  0  0  0  0  0  0  0  0  0  0  0
  -10.8017   -3.8059  -21.0721 H   0  0  0  0  0  0  0  0  0  0  0  0
   -8.5376   -0.5409  -24.1127 H   0  0  0  0  0  0  0  0  0  0  0  0
   -9.5544   -1.7642  -24.8793 H   0  0  0  0  0  0  0  0  0  0  0  0
   -9.5723    1.4740  -25.3645 H   0  0  0  0  0  0  0  0  0  0  0  0
   -9.4318    1.6111  -23.6172 H   0  0  0  0  0  0  0  0  0  0  0  0
  -11.1365    3.4005  -26.3930 H   0  0  0  0  0  0  0  0  0  0  0  0
  -13.3262    4.7470  -25.3531 H   0  0  0  0  0  0  0  0  0  0  0  0
  -11.4928    1.1965  -22.2166 H   0  0  0  0  0  0  0  0  0  0  0  0
  -13.3655    1.9596  -21.5125 H   0  0  0  0  0  0  0  0  0  0  0  0
  -11.8864    3.4836  -21.5769 H   0  0  0  0  0  0  0  0  0  0  0  0
  -10.0135    2.6622  -22.0711 H   0  0  0  0  0  0  0  0  0  0  0  0
  -11.4546    2.0830  -20.7619 H   0  0  0  0  0  0  0  0  0  0  0  0
  1  2  1  0
  2  3  1  0
  3  4  1  0
  4  5  2  0
  5  6  1  0
  6  7  2  0
  7  8  1  0
  8  9  1  0
  9 10  1  0
 11 10  1  6
 11 12  1  0
 12 13  2  0
 12 14  1  0
 14 15  1  0
 15 16  2  0
 16 17  1  0
 17 18  2  0
 18 19  1  0
 19 20  2  0
 20 21  1  0
 21 22  2  0
 22 23  1  0
 23 24  2  0
 23 25  1  0
 22 26  1  0
 21 27  1  0
 20 28  1  0
 18 29  1  0
 16 30  1  0
 14 31  1  0
 31 32  1  0
 32 33  1  0
 33 34  1  0
 33 35  1  0
 33 36  1  0
 32 37  1  1
 31 38  1  0
 31 39  1  0
 11 40  1  0
 40 41  2  0
 41 42  1  0
 42 43  1  0
 42 44  2  0
 44 45  1  0
 45 46  2  0
 46 47  1  0
 47 48  2  0
 45 49  1  0
 44 50  1  0
 41 51  1  0
 10 52  1  0
 10 53  1  0
  8 54  1  0
  8 55  1  0
  6 56  1  0
  5 57  1  0
  2 58  1  0
  2 59  1  0
  1 60  1  0
  1 61  1  0
  1 62  1  0
  7  3  1  0
 47  9  1  0
 32 11  1  0
 46 40  1  0
 24 15  1  0
 24 19  1  0
M  END
>  <cnnaffinities>  (1) 
[6.84488]

>  <score>  (1) 
6.84488

>  <index>  (1) 
60

>  <Smiles>  (1) 
C(C(n1nc(c(c1C(N1C([C@@]2(C(=O)N(c3c(nc(c4c(c(c(c(c34)[H])[H])[H])[H])[H])[H])C([C@@]2(C([H])([H])[H])[H])([H])[H])c2c(c(F)c(c(c2C1=O)[H])[H])[H])([H])[H])([H])[H])[H])[H])([H])[H])([H])([H])[H]

>  <h>  (1) 
<NA>

>  <Training>  (1) 
True

>  <Success>  (1) 
True

>  <enamine_searched>  (1) 
False

>  <enamine_id>  (1) 
nan

$$$$
