
     RDKit          3D

 50 54  0  0  0  0  0  0  0  0999 V2000
   -8.3901   -4.0238  -23.6749 C   0  0  0  0  0  0  0  0  0  0  0  0
   -8.5949   -3.0947  -22.4850 C   0  0  1  0  0  0  0  0  0  0  0  0
   -7.2613   -2.5164  -21.9992 C   0  0  0  0  0  0  0  0  0  0  0  0
   -7.6648   -1.3475  -21.2545 N   0  0  0  0  0  0  0  0  0  0  0  0
   -6.8806   -0.8010  -20.2100 C   0  0  0  0  0  0  0  0  0  0  0  0
   -7.1945   -1.0541  -18.8987 C   0  0  0  0  0  0  0  0  0  0  0  0
   -6.4676   -0.6215  -17.8366 N   0  0  0  0  0  0  0  0  0  0  0  0
   -5.3952    0.0921  -18.0863 C   0  0  0  0  0  0  0  0  0  0  0  0
   -4.9496    0.4263  -19.3965 C   0  0  0  0  0  0  0  0  0  0  0  0
   -3.7969    1.2241  -19.6225 C   0  0  0  0  0  0  0  0  0  0  0  0
   -3.3905    1.5065  -20.8970 C   0  0  0  0  0  0  0  0  0  0  0  0
   -4.1116    1.0034  -22.0026 C   0  0  0  0  0  0  0  0  0  0  0  0
   -5.2384    0.2414  -21.8113 C   0  0  0  0  0  0  0  0  0  0  0  0
   -5.6941   -0.0545  -20.4990 C   0  0  0  0  0  0  0  0  0  0  0  0
   -5.7944   -0.1285  -22.6687 H   0  0  0  0  0  0  0  0  0  0  0  0
   -3.7754    1.2255  -23.0110 H   0  0  0  0  0  0  0  0  0  0  0  0
   -2.5096    2.1194  -21.0710 H   0  0  0  0  0  0  0  0  0  0  0  0
   -3.2494    1.6048  -18.7646 H   0  0  0  0  0  0  0  0  0  0  0  0
   -4.8133    0.4416  -17.2304 H   0  0  0  0  0  0  0  0  0  0  0  0
   -8.0715   -1.6511  -18.6596 H   0  0  0  0  0  0  0  0  0  0  0  0
   -8.9529   -0.9309  -21.5314 C   0  0  0  0  0  0  0  0  0  0  0  0
   -9.4870    0.0202  -21.0110 O   0  0  0  0  0  0  0  0  0  0  0  0
   -9.5429   -1.8685  -22.6369 C   0  0  1  0  0  0  0  0  0  0  0  0
   -9.3762   -1.2065  -24.0307 C   0  0  0  0  0  0  0  0  0  0  0  0
  -10.3165   -0.1234  -24.2563 N   0  0  0  0  0  0  0  0  0  0  0  0
   -9.8959    1.1429  -24.8172 C   0  0  0  0  0  0  0  0  0  0  0  0
  -10.0037    2.2261  -23.8256 C   0  0  0  0  0  0  0  0  0  0  0  0
  -10.1362    3.0609  -23.0414 N   0  0  0  0  0  0  0  0  0  0  0  0
  -10.5287    1.3788  -25.6748 H   0  0  0  0  0  0  0  0  0  0  0  0
   -8.8620    1.0572  -25.1542 H   0  0  0  0  0  0  0  0  0  0  0  0
  -11.6426   -0.2396  -23.9559 C   0  0  0  0  0  0  0  0  0  0  0  0
  -12.4807    0.5635  -24.3396 O   0  0  0  0  0  0  0  0  0  0  0  0
  -12.0099   -1.3548  -23.0576 C   0  0  0  0  0  0  0  0  0  0  0  0
  -13.3687   -1.4713  -22.7663 C   0  0  0  0  0  0  0  0  0  0  0  0
  -13.8055   -2.3956  -21.8487 C   0  0  0  0  0  0  0  0  0  0  0  0
  -12.8333   -3.2011  -21.2704 C   0  0  0  0  0  0  0  0  0  0  0  0
  -13.2307   -4.0493  -20.3126 F   0  0  0  0  0  0  0  0  0  0  0  0
  -11.4924   -3.1400  -21.5961 C   0  0  0  0  0  0  0  0  0  0  0  0
  -11.0287   -2.1492  -22.4558 C   0  0  0  0  0  0  0  0  0  0  0  0
  -10.7994   -3.8362  -21.1465 H   0  0  0  0  0  0  0  0  0  0  0  0
  -14.8507   -2.4753  -21.5694 H   0  0  0  0  0  0  0  0  0  0  0  0
  -14.0496   -0.7803  -23.2511 H   0  0  0  0  0  0  0  0  0  0  0  0
   -9.5071   -1.9727  -24.8087 H   0  0  0  0  0  0  0  0  0  0  0  0
   -8.3680   -0.7934  -24.1209 H   0  0  0  0  0  0  0  0  0  0  0  0
   -6.7238   -3.2188  -21.3538 H   0  0  0  0  0  0  0  0  0  0  0  0
   -6.6033   -2.2682  -22.8495 H   0  0  0  0  0  0  0  0  0  0  0  0
   -8.9847   -3.6835  -21.6502 H   0  0  0  0  0  0  0  0  0  0  0  0
   -9.3210   -4.5020  -23.9995 H   0  0  0  0  0  0  0  0  0  0  0  0
   -7.9569   -3.4868  -24.5298 H   0  0  0  0  0  0  0  0  0  0  0  0
   -7.6796   -4.8121  -23.3928 H   0  0  0  0  0  0  0  0  0  0  0  0
  1  2  1  0
  2  3  1  0
  3  4  1  0
  4  5  1  0
  5  6  2  0
  6  7  1  0
  7  8  2  0
  8  9  1  0
  9 10  2  0
 10 11  1  0
 11 12  2  0
 12 13  1  0
 13 14  2  0
 13 15  1  0
 12 16  1  0
 11 17  1  0
 10 18  1  0
  8 19  1  0
  6 20  1  0
  4 21  1  0
 21 22  2  0
 21 23  1  0
 23 24  1  6
 24 25  1  0
 25 26  1  0
 26 27  1  0
 27 28  3  0
 26 29  1  0
 26 30  1  0
 25 31  1  0
 31 32  2  0
 31 33  1  0
 33 34  2  0
 34 35  1  0
 35 36  2  0
 36 37  1  0
 36 38  1  0
 38 39  2  0
 38 40  1  0
 35 41  1  0
 34 42  1  0
 24 43  1  0
 24 44  1  0
  3 45  1  0
  3 46  1  0
  2 47  1  1
  1 48  1  0
  1 49  1  0
  1 50  1  0
 23  2  1  0
 39 33  1  0
 14  5  1  0
 39 23  1  0
 14  9  1  0
M  END
>  <cnnaffinities>  (1) 
[6.45167]

>  <score>  (1) 
6.45167

>  <index>  (1) 
46

>  <Smiles>  (1) 
C([C@]1(C(N(c2c(nc(c3c(c(c(c(c23)[H])[H])[H])[H])[H])[H])C(=O)[C@]21C(N(C(C#N)([H])[H])C(=O)c1c(c(c(F)c(c21)[H])[H])[H])([H])[H])([H])[H])[H])([H])([H])[H]

>  <h>  (1) 
<NA>

>  <Training>  (1) 
True

>  <Success>  (1) 
True

>  <enamine_searched>  (1) 
False

>  <enamine_id>  (1) 
nan

$$$$
