
     RDKit          3D

 60 64  0  0  0  0  0  0  0  0999 V2000
   -7.4077    3.3838  -21.7991 C   0  0  0  0  0  0  0  0  0  0  0  0
   -8.2898    2.9281  -22.8567 N   0  0  0  0  0  0  0  0  0  0  0  0
   -7.7173    2.2335  -23.8666 C   0  0  0  0  0  0  0  0  0  0  0  0
   -6.5004    2.1257  -23.9746 O   0  0  0  0  0  0  0  0  0  0  0  0
   -8.6638    1.6066  -24.8912 C   0  0  0  0  0  0  0  0  0  0  0  0
   -9.3846    0.4499  -24.3918 N   0  0  0  0  0  0  0  0  0  0  0  0
   -8.6724   -0.8059  -24.2289 C   0  0  0  0  0  0  0  0  0  0  0  0
   -9.0620   -1.5225  -22.9077 C   0  0  2  0  0  0  0  0  0  0  0  0
   -8.5147   -0.7314  -21.6884 C   0  0  0  0  0  0  0  0  0  0  0  0
   -8.9613    0.2931  -21.2150 O   0  0  0  0  0  0  0  0  0  0  0  0
   -7.4050   -1.3858  -21.2004 N   0  0  0  0  0  0  0  0  0  0  0  0
   -6.6057   -0.8102  -20.1730 C   0  0  0  0  0  0  0  0  0  0  0  0
   -6.9116   -1.0417  -18.8565 C   0  0  0  0  0  0  0  0  0  0  0  0
   -6.2113   -0.5490  -17.8036 N   0  0  0  0  0  0  0  0  0  0  0  0
   -5.1711    0.2060  -18.0734 C   0  0  0  0  0  0  0  0  0  0  0  0
   -4.7329    0.5300  -19.3895 C   0  0  0  0  0  0  0  0  0  0  0  0
   -3.6061    1.3640  -19.6366 C   0  0  0  0  0  0  0  0  0  0  0  0
   -3.2204    1.6553  -20.9165 C   0  0  0  0  0  0  0  0  0  0  0  0
   -3.9412    1.1263  -22.0109 C   0  0  0  0  0  0  0  0  0  0  0  0
   -5.0343    0.3192  -21.7981 C   0  0  0  0  0  0  0  0  0  0  0  0
   -5.4666    0.0023  -20.4817 C   0  0  0  0  0  0  0  0  0  0  0  0
   -5.5908   -0.0659  -22.6482 H   0  0  0  0  0  0  0  0  0  0  0  0
   -3.6493    1.3722  -23.0261 H   0  0  0  0  0  0  0  0  0  0  0  0
   -2.3684    2.3053  -21.0968 H   0  0  0  0  0  0  0  0  0  0  0  0
   -3.0725    1.7739  -18.7826 H   0  0  0  0  0  0  0  0  0  0  0  0
   -4.6215    0.6099  -17.2229 H   0  0  0  0  0  0  0  0  0  0  0  0
   -7.7628   -1.6689  -18.6026 H   0  0  0  0  0  0  0  0  0  0  0  0
   -7.0683   -2.5995  -21.9199 C   0  0  0  0  0  0  0  0  0  0  0  0
   -8.3290   -2.8924  -22.7580 C   0  0  2  0  0  0  0  0  0  0  0  0
   -7.9800   -3.6576  -24.0328 C   0  0  0  0  0  0  0  0  0  0  0  0
   -9.1505   -3.9386  -24.7607 O   0  0  0  0  0  0  0  0  0  0  0  0
   -8.8659   -4.5845  -25.9793 C   0  0  0  0  0  0  0  0  0  0  0  0
   -8.2673   -3.9483  -26.6521 H   0  0  0  0  0  0  0  0  0  0  0  0
   -8.3106   -5.5219  -25.8198 H   0  0  0  0  0  0  0  0  0  0  0  0
   -9.8204   -4.8117  -26.4590 H   0  0  0  0  0  0  0  0  0  0  0  0
   -7.2783   -3.0682  -24.6490 H   0  0  0  0  0  0  0  0  0  0  0  0
   -7.4641   -4.6015  -23.7805 H   0  0  0  0  0  0  0  0  0  0  0  0
   -8.9988   -3.5312  -22.1829 H   0  0  0  0  0  0  0  0  0  0  0  0
   -6.1866   -2.4469  -22.5658 H   0  0  0  0  0  0  0  0  0  0  0  0
   -6.8253   -3.4102  -21.2216 H   0  0  0  0  0  0  0  0  0  0  0  0
  -10.5804   -1.5697  -22.8363 C   0  0  0  0  0  0  0  0  0  0  0  0
  -11.2168   -2.4500  -21.9517 C   0  0  0  0  0  0  0  0  0  0  0  0
  -12.5957   -2.4612  -21.8560 C   0  0  0  0  0  0  0  0  0  0  0  0
  -13.3826   -3.5338  -20.7365 Cl  0  0  0  0  0  0  0  0  0  0  0  0
  -13.3838   -1.6006  -22.6195 C   0  0  0  0  0  0  0  0  0  0  0  0
  -12.7621   -0.6794  -23.4380 C   0  0  0  0  0  0  0  0  0  0  0  0
  -11.3704   -0.6317  -23.5184 C   0  0  0  0  0  0  0  0  0  0  0  0
  -10.7429    0.5232  -24.2414 C   0  0  0  0  0  0  0  0  0  0  0  0
  -11.3976    1.4800  -24.6270 O   0  0  0  0  0  0  0  0  0  0  0  0
  -13.3283    0.0513  -24.0052 H   0  0  0  0  0  0  0  0  0  0  0  0
  -14.4627   -1.6399  -22.5282 H   0  0  0  0  0  0  0  0  0  0  0  0
  -10.6423   -3.1023  -21.3029 H   0  0  0  0  0  0  0  0  0  0  0  0
   -8.8829   -1.4849  -25.0705 H   0  0  0  0  0  0  0  0  0  0  0  0
   -7.6031   -0.5689  -24.2118 H   0  0  0  0  0  0  0  0  0  0  0  0
   -9.4378    2.3107  -25.2084 H   0  0  0  0  0  0  0  0  0  0  0  0
   -8.0295    1.3411  -25.7448 H   0  0  0  0  0  0  0  0  0  0  0  0
   -9.2856    2.8433  -22.6942 H   0  0  0  0  0  0  0  0  0  0  0  0
   -6.7249    4.1623  -22.1645 H   0  0  0  0  0  0  0  0  0  0  0  0
   -6.7992    2.5351  -21.4381 H   0  0  0  0  0  0  0  0  0  0  0  0
   -8.0187    3.8094  -21.0044 H   0  0  0  0  0  0  0  0  0  0  0  0
  1  2  1  0
  2  3  1  0
  3  4  2  0
  3  5  1  0
  5  6  1  0
  6  7  1  0
  8  7  1  6
  8  9  1  0
  9 10  2  0
  9 11  1  0
 11 12  1  0
 12 13  2  0
 13 14  1  0
 14 15  2  0
 15 16  1  0
 16 17  2  0
 17 18  1  0
 18 19  2  0
 19 20  1  0
 20 21  2  0
 20 22  1  0
 19 23  1  0
 18 24  1  0
 17 25  1  0
 15 26  1  0
 13 27  1  0
 11 28  1  0
 28 29  1  0
 29 30  1  0
 30 31  1  0
 31 32  1  0
 32 33  1  0
 32 34  1  0
 32 35  1  0
 30 36  1  0
 30 37  1  0
 29 38  1  1
 28 39  1  0
 28 40  1  0
  8 41  1  0
 41 42  2  0
 42 43  1  0
 43 44  1  0
 43 45  2  0
 45 46  1  0
 46 47  2  0
 47 48  1  0
 48 49  2  0
 46 50  1  0
 45 51  1  0
 42 52  1  0
  7 53  1  0
  7 54  1  0
  5 55  1  0
  5 56  1  0
  2 57  1  0
  1 58  1  0
  1 59  1  0
  1 60  1  0
 48  6  1  0
 29  8  1  0
 47 41  1  0
 21 12  1  0
 21 16  1  0
M  END
>  <cnnaffinities>  (1) 
[6.51707, 6.41946, 6.45131, 6.35654, 6.65136]

>  <score>  (1) 
6.51707

>  <index>  (1) 
44

>  <Smiles>  (1) 
C(N(C(=O)C(N1C([C@@]2(C(=O)N(c3c(nc(c4c(c(c(c(c34)[H])[H])[H])[H])[H])[H])C([C@@]2(C(OC([H])([H])[H])([H])[H])[H])([H])[H])c2c(c(Cl)c(c(c2C1=O)[H])[H])[H])([H])[H])([H])[H])[H])([H])([H])[H]

>  <h>  (1) 
<NA>

>  <Training>  (1) 
True

>  <Success>  (1) 
True

>  <enamine_searched>  (1) 
False

>  <enamine_id>  (1) 
nan

$$$$
