
     RDKit          3D

 43 45  0  0  0  0  0  0  0  0999 V2000
   -8.5395   -5.5584  -25.7863 C   0  0  0  0  0  0  0  0  0  0  0  0
   -9.0489   -5.4363  -24.3504 C   0  0  1  0  0  0  0  0  0  0  0  0
   -8.0229   -5.8737  -23.3102 C   0  0  0  0  0  0  0  0  0  0  0  0
   -6.9354   -4.8305  -23.0929 C   0  0  0  0  0  0  0  0  0  0  0  0
   -7.5152   -3.5409  -22.7107 N   0  0  0  0  0  0  0  0  0  0  0  0
   -6.7569   -2.7457  -21.8632 C   0  0  0  0  0  0  0  0  0  0  0  0
   -5.6250   -3.0585  -21.5417 O   0  0  0  0  0  0  0  0  0  0  0  0
   -7.4128   -1.4736  -21.2703 C   0  0  0  0  0  0  0  0  0  0  0  0
   -6.5796   -0.8308  -20.1833 C   0  0  0  0  0  0  0  0  0  0  0  0
   -6.8739   -1.0470  -18.8634 C   0  0  0  0  0  0  0  0  0  0  0  0
   -6.1949   -0.5432  -17.7958 N   0  0  0  0  0  0  0  0  0  0  0  0
   -5.1606    0.2192  -18.0641 C   0  0  0  0  0  0  0  0  0  0  0  0
   -4.7231    0.5287  -19.3791 C   0  0  0  0  0  0  0  0  0  0  0  0
   -3.5950    1.3562  -19.6205 C   0  0  0  0  0  0  0  0  0  0  0  0
   -3.1918    1.6328  -20.8994 C   0  0  0  0  0  0  0  0  0  0  0  0
   -3.9018    1.0893  -21.9926 C   0  0  0  0  0  0  0  0  0  0  0  0
   -4.9981    0.2877  -21.7854 C   0  0  0  0  0  0  0  0  0  0  0  0
   -5.4451   -0.0134  -20.4733 C   0  0  0  0  0  0  0  0  0  0  0  0
   -5.5266   -0.1306  -22.6357 H   0  0  0  0  0  0  0  0  0  0  0  0
   -3.5776    1.3126  -23.0050 H   0  0  0  0  0  0  0  0  0  0  0  0
   -2.3304    2.2714  -21.0849 H   0  0  0  0  0  0  0  0  0  0  0  0
   -3.0584    1.7720  -18.7701 H   0  0  0  0  0  0  0  0  0  0  0  0
   -4.6055    0.6262  -17.2157 H   0  0  0  0  0  0  0  0  0  0  0  0
   -7.7212   -1.6714  -18.5874 H   0  0  0  0  0  0  0  0  0  0  0  0
   -8.3924   -1.7513  -20.8551 H   0  0  0  0  0  0  0  0  0  0  0  0
   -7.6217   -0.7475  -22.0688 H   0  0  0  0  0  0  0  0  0  0  0  0
   -8.5388   -2.9939  -23.6119 C   0  0  1  0  0  0  0  0  0  0  0  0
   -7.9408   -2.2903  -24.8400 C   0  0  0  0  0  0  0  0  0  0  0  0
   -8.7278   -1.9764  -25.5352 H   0  0  0  0  0  0  0  0  0  0  0  0
   -7.3896   -1.3887  -24.5506 H   0  0  0  0  0  0  0  0  0  0  0  0
   -7.2486   -2.9315  -25.3935 H   0  0  0  0  0  0  0  0  0  0  0  0
   -9.5870   -4.0595  -23.9664 C   0  0  0  0  0  0  0  0  0  0  0  0
  -10.2596   -4.1741  -23.1090 H   0  0  0  0  0  0  0  0  0  0  0  0
  -10.2110   -3.6819  -24.7831 H   0  0  0  0  0  0  0  0  0  0  0  0
   -9.0788   -2.2349  -23.0419 H   0  0  0  0  0  0  0  0  0  0  0  0
   -6.2991   -4.7531  -23.9875 H   0  0  0  0  0  0  0  0  0  0  0  0
   -6.2714   -5.1424  -22.2898 H   0  0  0  0  0  0  0  0  0  0  0  0
   -8.5184   -6.0607  -22.3531 H   0  0  0  0  0  0  0  0  0  0  0  0
   -7.5749   -6.8259  -23.6127 H   0  0  0  0  0  0  0  0  0  0  0  0
   -9.8978   -6.1191  -24.3042 H   0  0  0  0  0  0  0  0  0  0  0  0
   -8.3801   -6.6121  -26.0478 H   0  0  0  0  0  0  0  0  0  0  0  0
   -9.2668   -5.1516  -26.4967 H   0  0  0  0  0  0  0  0  0  0  0  0
   -7.5936   -5.0371  -25.9461 H   0  0  0  0  0  0  0  0  0  0  0  0
  1  2  1  0
  2  3  1  0
  3  4  1  0
  4  5  1  0
  5  6  1  0
  6  7  2  0
  6  8  1  0
  8  9  1  0
  9 10  2  0
 10 11  1  0
 11 12  2  0
 12 13  1  0
 13 14  2  0
 14 15  1  0
 15 16  2  0
 16 17  1  0
 17 18  2  0
 17 19  1  0
 16 20  1  0
 15 21  1  0
 14 22  1  0
 12 23  1  0
 10 24  1  0
  8 25  1  0
  8 26  1  0
  5 27  1  0
 27 28  1  0
 28 29  1  0
 28 30  1  0
 28 31  1  0
 27 32  1  0
 32 33  1  0
 32 34  1  0
 27 35  1  1
  4 36  1  0
  4 37  1  0
  3 38  1  0
  3 39  1  0
  2 40  1  6
  1 41  1  0
  1 42  1  0
  1 43  1  0
 32  2  1  0
 18  9  1  0
 18 13  1  0
M  END
>  <cnnaffinities>  (1) 
[5.06384, 4.93713, 4.95705, 4.89264]

>  <score>  (1) 
5.06384

>  <index>  (1) 
86

>  <Smiles>  (1) 
C([C@]1(C(C(N(C(=O)C(c2c(nc(c3c(c(c(c(c23)[H])[H])[H])[H])[H])[H])([H])[H])[C@@](C([H])([H])[H])(C1([H])[H])[H])([H])[H])([H])[H])[H])([H])([H])[H]

>  <h>  (1) 
<NA>

>  <Training>  (1) 
True

>  <Success>  (1) 
True

>  <enamine_searched>  (1) 
False

>  <enamine_id>  (1) 
nan

$$$$
