
     RDKit          3D

 36 38  0  0  0  0  0  0  0  0999 V2000
   -8.5058    0.7097  -21.4615 O   0  0  0  0  0  0  0  0  0  0  0  0
   -8.3849   -0.4023  -21.9337 C   0  0  0  0  0  0  0  0  0  0  0  0
   -7.4379   -1.4331  -21.2755 C   0  0  0  0  0  0  0  0  0  0  0  0
   -6.5821   -0.8280  -20.1830 C   0  0  0  0  0  0  0  0  0  0  0  0
   -6.8795   -1.0398  -18.8614 C   0  0  0  0  0  0  0  0  0  0  0  0
   -6.1986   -0.5365  -17.7944 N   0  0  0  0  0  0  0  0  0  0  0  0
   -5.1593    0.2195  -18.0624 C   0  0  0  0  0  0  0  0  0  0  0  0
   -4.7263    0.5339  -19.3793 C   0  0  0  0  0  0  0  0  0  0  0  0
   -3.6002    1.3652  -19.6199 C   0  0  0  0  0  0  0  0  0  0  0  0
   -3.2108    1.6585  -20.9001 C   0  0  0  0  0  0  0  0  0  0  0  0
   -3.9339    1.1304  -21.9932 C   0  0  0  0  0  0  0  0  0  0  0  0
   -5.0276    0.3235  -21.7866 C   0  0  0  0  0  0  0  0  0  0  0  0
   -5.4555    0.0017  -20.4717 C   0  0  0  0  0  0  0  0  0  0  0  0
   -5.5757   -0.0678  -22.6375 H   0  0  0  0  0  0  0  0  0  0  0  0
   -3.6225    1.3714  -23.0049 H   0  0  0  0  0  0  0  0  0  0  0  0
   -2.3537    2.3017  -21.0865 H   0  0  0  0  0  0  0  0  0  0  0  0
   -3.0569    1.7747  -18.7711 H   0  0  0  0  0  0  0  0  0  0  0  0
   -4.6024    0.6260  -17.2156 H   0  0  0  0  0  0  0  0  0  0  0  0
   -7.7293   -1.6606  -18.5866 H   0  0  0  0  0  0  0  0  0  0  0  0
   -6.8020   -1.8998  -22.0405 H   0  0  0  0  0  0  0  0  0  0  0  0
   -8.0409   -2.2452  -20.8452 H   0  0  0  0  0  0  0  0  0  0  0  0
   -9.0626   -0.7715  -23.0887 N   0  0  0  0  0  0  0  0  0  0  0  0
  -10.0066    0.1962  -23.6426 C   0  0  0  0  0  0  0  0  0  0  0  0
  -11.3807    0.2158  -23.0213 C   0  0  0  0  0  0  0  0  0  0  0  0
  -12.0208   -0.7906  -22.4170 C   0  0  0  0  0  0  0  0  0  0  0  0
  -11.5706   -2.1750  -22.1571 C   0  0  0  0  0  0  0  0  0  0  0  0
  -10.4472   -2.7809  -22.5516 C   0  0  0  0  0  0  0  0  0  0  0  0
   -9.3679   -2.1606  -23.4044 C   0  0  0  0  0  0  0  0  0  0  0  0
   -8.4500   -2.7535  -23.3595 H   0  0  0  0  0  0  0  0  0  0  0  0
   -9.6838   -2.1767  -24.4539 H   0  0  0  0  0  0  0  0  0  0  0  0
  -10.2829   -3.8162  -22.2473 H   0  0  0  0  0  0  0  0  0  0  0  0
  -12.2761   -2.7641  -21.5744 H   0  0  0  0  0  0  0  0  0  0  0  0
  -13.0200   -0.5787  -22.0391 H   0  0  0  0  0  0  0  0  0  0  0  0
  -11.8922    1.1797  -23.0821 H   0  0  0  0  0  0  0  0  0  0  0  0
   -9.5578    1.1919  -23.5955 H   0  0  0  0  0  0  0  0  0  0  0  0
  -10.1121   -0.0400  -24.7082 H   0  0  0  0  0  0  0  0  0  0  0  0
  1  2  2  0
  2  3  1  0
  3  4  1  0
  4  5  2  0
  5  6  1  0
  6  7  2  0
  7  8  1  0
  8  9  2  0
  9 10  1  0
 10 11  2  0
 11 12  1  0
 12 13  2  0
 12 14  1  0
 11 15  1  0
 10 16  1  0
  9 17  1  0
  7 18  1  0
  5 19  1  0
  3 20  1  0
  3 21  1  0
  2 22  1  0
 22 23  1  0
 23 24  1  0
 24 25  2  0
 25 26  1  0
 26 27  2  0
 27 28  1  0
 28 29  1  0
 28 30  1  0
 27 31  1  0
 26 32  1  0
 25 33  1  0
 24 34  1  0
 23 35  1  0
 23 36  1  0
 13  4  1  0
 28 22  1  0
 13  8  1  0
M  END
>  <cnnaffinities>  (1) 
[4.86206, 4.8417, 5.09564, 5.0956, 4.6476, 4.6475, 4.86209, 4.86105]

>  <score>  (1) 
4.86206

>  <index>  (1) 
81

>  <Smiles>  (1) 
O=C(C(c1c(nc(c2c(c(c(c(c12)[H])[H])[H])[H])[H])[H])([H])[H])N1C(C(=C(C(=C(C1([H])[H])[H])[H])[H])[H])([H])[H]

>  <h>  (1) 
<NA>

>  <Training>  (1) 
True

>  <Success>  (1) 
True

>  <enamine_searched>  (1) 
False

>  <enamine_id>  (1) 
nan

$$$$
