
     RDKit          3D

 44 47  0  0  0  0  0  0  0  0999 V2000
   -5.6190   -3.1240  -21.3491 O   0  0  0  0  0  0  0  0  0  0  0  0
   -6.7704   -2.8713  -21.6751 C   0  0  0  0  0  0  0  0  0  0  0  0
   -7.4002   -1.5357  -21.2673 C   0  0  0  0  0  0  0  0  0  0  0  0
   -6.6000   -0.8624  -20.1868 C   0  0  0  0  0  0  0  0  0  0  0  0
   -6.9228   -1.0750  -18.8714 C   0  0  0  0  0  0  0  0  0  0  0  0
   -6.2604   -0.5654  -17.7972 N   0  0  0  0  0  0  0  0  0  0  0  0
   -5.2153    0.1864  -18.0627 C   0  0  0  0  0  0  0  0  0  0  0  0
   -4.7562    0.4861  -19.3750 C   0  0  0  0  0  0  0  0  0  0  0  0
   -3.6340    1.3227  -19.6055 C   0  0  0  0  0  0  0  0  0  0  0  0
   -3.2295    1.6035  -20.8830 C   0  0  0  0  0  0  0  0  0  0  0  0
   -3.9199    1.0542  -21.9839 C   0  0  0  0  0  0  0  0  0  0  0  0
   -5.0015    0.2318  -21.7886 C   0  0  0  0  0  0  0  0  0  0  0  0
   -5.4575   -0.0615  -20.4744 C   0  0  0  0  0  0  0  0  0  0  0  0
   -5.5117   -0.1927  -22.6469 H   0  0  0  0  0  0  0  0  0  0  0  0
   -3.5950    1.2962  -22.9921 H   0  0  0  0  0  0  0  0  0  0  0  0
   -2.3773    2.2524  -21.0595 H   0  0  0  0  0  0  0  0  0  0  0  0
   -3.1098    1.7453  -18.7523 H   0  0  0  0  0  0  0  0  0  0  0  0
   -4.6662    0.6077  -17.2189 H   0  0  0  0  0  0  0  0  0  0  0  0
   -7.7841   -1.6992  -18.6314 H   0  0  0  0  0  0  0  0  0  0  0  0
   -7.5049   -0.9037  -22.1604 H   0  0  0  0  0  0  0  0  0  0  0  0
   -8.4072   -1.7470  -20.8858 H   0  0  0  0  0  0  0  0  0  0  0  0
   -7.5427   -3.7613  -22.3908 N   0  0  0  0  0  0  0  0  0  0  0  0
   -7.1347   -5.1670  -22.3237 C   0  0  0  0  0  0  0  0  0  0  0  0
   -7.3394   -5.9034  -23.6473 C   0  0  0  0  0  0  0  0  0  0  0  0
   -8.8054   -5.7508  -24.1112 C   0  0  0  0  0  0  0  0  0  0  0  0
   -9.1108   -6.5524  -25.3803 C   0  0  0  0  0  0  0  0  0  0  0  0
   -9.6143   -7.9753  -25.3116 C   0  0  0  0  0  0  0  0  0  0  0  0
  -10.5131   -6.8855  -25.8294 C   0  0  0  0  0  0  0  0  0  0  0  0
  -11.3694   -6.5813  -25.2317 H   0  0  0  0  0  0  0  0  0  0  0  0
  -10.6867   -6.8559  -26.9006 H   0  0  0  0  0  0  0  0  0  0  0  0
   -9.2405   -8.6915  -26.0348 H   0  0  0  0  0  0  0  0  0  0  0  0
   -9.8389   -8.4335  -24.3503 H   0  0  0  0  0  0  0  0  0  0  0  0
   -8.4245   -6.3826  -26.2147 H   0  0  0  0  0  0  0  0  0  0  0  0
   -9.1952   -4.2520  -24.1651 C   0  0  0  0  0  0  0  0  0  0  0  0
   -8.9324   -3.5408  -22.8238 C   0  0  0  0  0  0  0  0  0  0  0  0
   -9.1271   -2.4680  -22.9467 H   0  0  0  0  0  0  0  0  0  0  0  0
   -9.6557   -3.8942  -22.0626 H   0  0  0  0  0  0  0  0  0  0  0  0
   -8.6389   -3.7176  -24.9475 H   0  0  0  0  0  0  0  0  0  0  0  0
  -10.2631   -4.1513  -24.4086 H   0  0  0  0  0  0  0  0  0  0  0  0
   -9.4197   -6.1778  -23.3064 H   0  0  0  0  0  0  0  0  0  0  0  0
   -6.6302   -5.5316  -24.4021 H   0  0  0  0  0  0  0  0  0  0  0  0
   -7.0898   -6.9615  -23.4771 H   0  0  0  0  0  0  0  0  0  0  0  0
   -7.7241   -5.6755  -21.5400 H   0  0  0  0  0  0  0  0  0  0  0  0
   -6.0885   -5.1862  -22.0116 H   0  0  0  0  0  0  0  0  0  0  0  0
  1  2  2  0
  2  3  1  0
  3  4  1  0
  4  5  2  0
  5  6  1  0
  6  7  2  0
  7  8  1  0
  8  9  2  0
  9 10  1  0
 10 11  2  0
 11 12  1  0
 12 13  2  0
 12 14  1  0
 11 15  1  0
 10 16  1  0
  9 17  1  0
  7 18  1  0
  5 19  1  0
  3 20  1  0
  3 21  1  0
  2 22  1  0
 22 23  1  0
 23 24  1  0
 24 25  1  0
 25 26  1  0
 26 27  1  0
 27 28  1  0
 28 29  1  0
 28 30  1  0
 27 31  1  0
 27 32  1  0
 26 33  1  0
 25 34  1  0
 34 35  1  0
 35 36  1  0
 35 37  1  0
 34 38  1  0
 34 39  1  0
 25 40  1  0
 24 41  1  0
 24 42  1  0
 23 43  1  0
 23 44  1  0
 13  4  1  0
 35 22  1  0
 13  8  1  0
 28 26  1  0
M  END
>  <cnnaffinities>  (1) 
[5.21571, 5.00304, 4.77328, 5.13501, 5.14929, 4.77, 5.08282]

>  <score>  (1) 
5.21571

>  <index>  (1) 
62

>  <Smiles>  (1) 
O=C(C(c1c(nc(c2c(c(c(c(c12)[H])[H])[H])[H])[H])[H])([H])[H])N1C(C(C(C2(C(C2([H])[H])([H])[H])[H])(C(C1([H])[H])([H])[H])[H])([H])[H])([H])[H]

>  <h>  (1) 
<NA>

>  <Training>  (1) 
True

>  <Success>  (1) 
True

>  <enamine_searched>  (1) 
False

>  <enamine_id>  (1) 
nan

$$$$
