
     RDKit          3D

 57 62  0  0  0  0  0  0  0  0999 V2000
    8.8512   -2.7965   23.6523 C   0  0  0  0  0  0  0  0  0  0  0  0
    8.9131   -1.7981   22.5039 C   0  0  1  0  0  0  0  0  0  0  0  0
    7.5710   -1.5463   21.8079 C   0  0  0  0  0  0  0  0  0  0  0  0
    7.7758   -0.2599   21.1632 N   0  0  0  0  0  0  0  0  0  0  0  0
    6.9383    0.2609   20.1404 C   0  0  0  0  0  0  0  0  0  0  0  0
    7.2094   -0.0160   18.8238 C   0  0  0  0  0  0  0  0  0  0  0  0
    6.4860    0.4456   17.7720 N   0  0  0  0  0  0  0  0  0  0  0  0
    5.4472    1.2060   18.0385 C   0  0  0  0  0  0  0  0  0  0  0  0
    5.0334    1.5521   19.3578 C   0  0  0  0  0  0  0  0  0  0  0  0
    3.9075    2.3871   19.6108 C   0  0  0  0  0  0  0  0  0  0  0  0
    3.5451    2.6907   20.8946 C   0  0  0  0  0  0  0  0  0  0  0  0
    4.2765    2.1713   21.9851 C   0  0  0  0  0  0  0  0  0  0  0  0
    5.3806    1.3846   21.7721 C   0  0  0  0  0  0  0  0  0  0  0  0
    5.7884    1.0557   20.4499 C   0  0  0  0  0  0  0  0  0  0  0  0
    8.8175    0.4669   21.7069 C   0  0  0  0  0  0  0  0  0  0  0  0
    9.1563    1.5688   21.3403 O   0  0  0  0  0  0  0  0  0  0  0  0
    9.4267   -0.3744   22.8602 C   0  0  1  0  0  0  0  0  0  0  0  0
    8.8461    0.1300   24.2089 C   0  0  0  0  0  0  0  0  0  0  0  0
    9.2663    1.4881   24.5076 N   0  0  0  0  0  0  0  0  0  0  0  0
    8.3834    2.3026   25.3185 C   0  0  0  0  0  0  0  0  0  0  0  0
    7.5008    3.2045   24.5223 C   0  0  0  0  0  0  0  0  0  0  0  0
    6.2238    3.5561   24.7899 C   0  0  0  0  0  0  0  0  0  0  0  0
    5.8560    4.4694   23.8283 N   0  0  0  0  0  4  0  0  0  0  0  0
    6.8767    4.6565   22.9830 C   0  0  0  0  0  0  0  0  0  0  0  0
    7.8876    3.8816   23.3879 N   0  0  0  0  0  0  0  0  0  0  0  0
   10.5366    1.9270   24.2702 C   0  0  0  0  0  0  0  0  0  0  0  0
   10.9109    3.0434   24.6087 O   0  0  0  0  0  0  0  0  0  0  0  0
   11.4407    0.9601   23.5583 C   0  0  0  0  0  0  0  0  0  0  0  0
   12.8078    1.2409   23.5199 C   0  0  0  0  0  0  0  0  0  0  0  0
   13.6829    0.3937   22.8698 C   0  0  0  0  0  0  0  0  0  0  0  0
   13.1635   -0.7469   22.2700 C   0  0  0  0  0  0  0  0  0  0  0  0
   13.9986   -1.5790   21.6265 F   0  0  0  0  0  0  0  0  0  0  0  0
   11.8191   -1.0562   22.2902 C   0  0  0  0  0  0  0  0  0  0  0  0
   10.9278   -0.1891   22.9300 C   0  0  0  0  0  0  0  0  0  0  0  0
    8.0946   -2.5068   24.3880 H   0  0  0  0  0  0  0  0  0  0  0  0
    9.8096   -2.8635   24.1791 H   0  0  0  0  0  0  0  0  0  0  0  0
    8.5952   -3.7972   23.2916 H   0  0  0  0  0  0  0  0  0  0  0  0
    9.5631   -2.2165   21.7288 H   0  0  0  0  0  0  0  0  0  0  0  0
    6.7515   -1.5276   22.5472 H   0  0  0  0  0  0  0  0  0  0  0  0
    7.3419   -2.3174   21.0683 H   0  0  0  0  0  0  0  0  0  0  0  0
    8.0704   -0.6315   18.5695 H   0  0  0  0  0  0  0  0  0  0  0  0
    4.8685    1.5867   17.1934 H   0  0  0  0  0  0  0  0  0  0  0  0
    3.3420    2.7868   18.7724 H   0  0  0  0  0  0  0  0  0  0  0  0
    2.6871    3.3301   21.0871 H   0  0  0  0  0  0  0  0  0  0  0  0
    3.9775    2.4116   23.0005 H   0  0  0  0  0  0  0  0  0  0  0  0
    5.9483    0.9995   22.6143 H   0  0  0  0  0  0  0  0  0  0  0  0
    7.7506    0.1027   24.1733 H   0  0  0  0  0  0  0  0  0  0  0  0
    9.1750   -0.5291   25.0245 H   0  0  0  0  0  0  0  0  0  0  0  0
    8.9890    2.8839   26.0238 H   0  0  0  0  0  0  0  0  0  0  0  0
    7.7410    1.6438   25.9146 H   0  0  0  0  0  0  0  0  0  0  0  0
    5.5738    3.2379   25.5968 H   0  0  0  0  0  0  0  0  0  0  0  0
    4.9450    4.9051   23.7751 H   0  0  0  0  0  0  0  0  0  0  0  0
    6.8710    5.3132   22.1236 H   0  0  0  0  0  0  0  0  0  0  0  0
    8.8067    3.8291   22.9620 H   0  0  0  0  0  0  0  0  0  0  0  0
   13.1812    2.1334   24.0082 H   0  0  0  0  0  0  0  0  0  0  0  0
   14.7475    0.6007   22.8135 H   0  0  0  0  0  0  0  0  0  0  0  0
   11.4951   -1.9690   21.8036 H   0  0  0  0  0  0  0  0  0  0  0  0
  1  2  1  0
  2  3  1  0
  3  4  1  0
  4  5  1  0
  5  6  2  0
  6  7  1  0
  7  8  2  0
  8  9  1  0
  9 10  2  0
 10 11  1  0
 11 12  2  0
 12 13  1  0
 13 14  2  0
  4 15  1  0
 15 16  2  0
 15 17  1  0
 17 18  1  1
 18 19  1  0
 19 20  1  0
 20 21  1  0
 21 22  2  0
 22 23  1  0
 23 24  2  0
 24 25  1  0
 19 26  1  0
 26 27  2  0
 26 28  1  0
 28 29  2  0
 29 30  1  0
 30 31  2  0
 31 32  1  0
 31 33  1  0
 33 34  2  0
 17  2  1  0
 25 21  1  0
 34 28  1  0
 14  5  1  0
 34 17  1  0
 14  9  1  0
  1 35  1  0
  1 36  1  0
  1 37  1  0
  2 38  1  6
  3 39  1  0
  3 40  1  0
  6 41  1  0
  8 42  1  0
 10 43  1  0
 11 44  1  0
 12 45  1  0
 13 46  1  0
 18 47  1  0
 18 48  1  0
 20 49  1  0
 20 50  1  0
 22 51  1  0
 23 52  1  0
 24 53  1  0
 25 54  1  0
 29 55  1  0
 30 56  1  0
 33 57  1  0
M  CHG  1  23   1
M  END
$$$$
