
     RDKit          3D

 61 65  0  0  0  0  0  0  0  0999 V2000
    8.8574   -2.7930   23.6385 C   0  0  0  0  0  0  0  0  0  0  0  0
    8.9066   -1.7843   22.4950 C   0  0  1  0  0  0  0  0  0  0  0  0
    7.5611   -1.5547   21.7902 C   0  0  0  0  0  0  0  0  0  0  0  0
    7.7843   -0.2813   21.1325 N   0  0  0  0  0  0  0  0  0  0  0  0
    6.9421    0.2607   20.1302 C   0  0  0  0  0  0  0  0  0  0  0  0
    7.2200   -0.0124   18.8160 C   0  0  0  0  0  0  0  0  0  0  0  0
    6.5006    0.4515   17.7654 N   0  0  0  0  0  0  0  0  0  0  0  0
    5.4652    1.2109   18.0441 C   0  0  0  0  0  0  0  0  0  0  0  0
    5.0620    1.5650   19.3660 C   0  0  0  0  0  0  0  0  0  0  0  0
    3.9289    2.3869   19.6112 C   0  0  0  0  0  0  0  0  0  0  0  0
    3.5517    2.6921   20.8911 C   0  0  0  0  0  0  0  0  0  0  0  0
    4.2835    2.1883   21.9878 C   0  0  0  0  0  0  0  0  0  0  0  0
    5.3956    1.4057   21.7794 C   0  0  0  0  0  0  0  0  0  0  0  0
    5.8164    1.0762   20.4569 C   0  0  0  0  0  0  0  0  0  0  0  0
    8.7562    0.4746   21.7310 C   0  0  0  0  0  0  0  0  0  0  0  0
    8.9697    1.6486   21.4702 O   0  0  0  0  0  0  0  0  0  0  0  0
    9.4143   -0.3603   22.8515 C   0  0  1  0  0  0  0  0  0  0  0  0
    8.8347    0.1295   24.2007 C   0  0  0  0  0  0  0  0  0  0  0  0
    9.2710    1.4762   24.5159 N   0  0  0  0  0  0  0  0  0  0  0  0
    8.4126    2.3289   25.3198 C   0  0  0  0  0  0  0  0  0  0  0  0
    7.6406    3.4533   24.5826 C   0  0  0  0  0  0  0  0  0  0  0  0
    8.0445    3.7579   23.1664 N   0  0  0  0  0  4  0  0  0  0  0  0
    7.0022    4.6043   22.5144 C   0  0  0  0  0  0  0  0  0  0  0  0
    9.3862    4.4276   23.0745 C   0  0  0  0  0  0  0  0  0  0  0  0
   10.5948    1.8058   24.4391 C   0  0  0  0  0  0  0  0  0  0  0  0
   11.0642    2.7832   25.0089 O   0  0  0  0  0  0  0  0  0  0  0  0
   11.4505    0.9210   23.5817 C   0  0  0  0  0  0  0  0  0  0  0  0
   12.8102    1.2252   23.5190 C   0  0  0  0  0  0  0  0  0  0  0  0
   13.6877    0.3944   22.8520 C   0  0  0  0  0  0  0  0  0  0  0  0
   13.1774   -0.7499   22.2418 C   0  0  0  0  0  0  0  0  0  0  0  0
   14.2766   -1.8280   21.4223 Cl  0  0  0  0  0  0  0  0  0  0  0  0
   11.8247   -1.0469   22.2592 C   0  0  0  0  0  0  0  0  0  0  0  0
   10.9211   -0.1863   22.9051 C   0  0  0  0  0  0  0  0  0  0  0  0
    8.1063   -2.5148   24.3868 H   0  0  0  0  0  0  0  0  0  0  0  0
    9.8213   -2.8648   24.1553 H   0  0  0  0  0  0  0  0  0  0  0  0
    8.5959   -3.7941   23.2811 H   0  0  0  0  0  0  0  0  0  0  0  0
    9.5876   -2.1509   21.7231 H   0  0  0  0  0  0  0  0  0  0  0  0
    6.7329   -1.4990   22.5180 H   0  0  0  0  0  0  0  0  0  0  0  0
    7.3081   -2.3286   21.0599 H   0  0  0  0  0  0  0  0  0  0  0  0
    8.0835   -0.6292   18.5719 H   0  0  0  0  0  0  0  0  0  0  0  0
    4.8707    1.5773   17.2059 H   0  0  0  0  0  0  0  0  0  0  0  0
    3.3745    2.7623   18.7576 H   0  0  0  0  0  0  0  0  0  0  0  0
    2.6902    3.3278   21.0741 H   0  0  0  0  0  0  0  0  0  0  0  0
    3.9816    2.4471   23.0002 H   0  0  0  0  0  0  0  0  0  0  0  0
    5.9496    1.0302   22.6345 H   0  0  0  0  0  0  0  0  0  0  0  0
    7.7419    0.1334   24.1535 H   0  0  0  0  0  0  0  0  0  0  0  0
    9.1515   -0.5657   24.9924 H   0  0  0  0  0  0  0  0  0  0  0  0
    9.0467    2.7534   26.1024 H   0  0  0  0  0  0  0  0  0  0  0  0
    7.6870    1.6736   25.8186 H   0  0  0  0  0  0  0  0  0  0  0  0
    6.5718    3.2190   24.5787 H   0  0  0  0  0  0  0  0  0  0  0  0
    7.7414    4.3694   25.1777 H   0  0  0  0  0  0  0  0  0  0  0  0
    8.1276    2.8619   22.6620 H   0  0  0  0  0  0  0  0  0  0  0  0
    6.0153    4.1525   22.6256 H   0  0  0  0  0  0  0  0  0  0  0  0
    7.2161    4.7180   21.4464 H   0  0  0  0  0  0  0  0  0  0  0  0
    6.9724    5.6023   22.9776 H   0  0  0  0  0  0  0  0  0  0  0  0
   10.1014    3.7214   22.6325 H   0  0  0  0  0  0  0  0  0  0  0  0
    9.3063    5.2966   22.4126 H   0  0  0  0  0  0  0  0  0  0  0  0
    9.7245    4.7536   24.0660 H   0  0  0  0  0  0  0  0  0  0  0  0
   13.1542    2.1245   24.0165 H   0  0  0  0  0  0  0  0  0  0  0  0
   14.7531    0.6057   22.8117 H   0  0  0  0  0  0  0  0  0  0  0  0
   11.5018   -1.9618   21.7759 H   0  0  0  0  0  0  0  0  0  0  0  0
  1  2  1  0
  2  3  1  0
  3  4  1  0
  4  5  1  0
  5  6  2  0
  6  7  1  0
  7  8  2  0
  8  9  1  0
  9 10  2  0
 10 11  1  0
 11 12  2  0
 12 13  1  0
 13 14  2  0
  4 15  1  0
 15 16  2  0
 15 17  1  0
 17 18  1  1
 18 19  1  0
 19 20  1  0
 20 21  1  0
 21 22  1  0
 22 23  1  0
 22 24  1  0
 19 25  1  0
 25 26  2  0
 25 27  1  0
 27 28  2  0
 28 29  1  0
 29 30  2  0
 30 31  1  0
 30 32  1  0
 32 33  2  0
 17  2  1  0
 33 27  1  0
 14  5  1  0
 33 17  1  0
 14  9  1  0
  1 34  1  0
  1 35  1  0
  1 36  1  0
  2 37  1  6
  3 38  1  0
  3 39  1  0
  6 40  1  0
  8 41  1  0
 10 42  1  0
 11 43  1  0
 12 44  1  0
 13 45  1  0
 18 46  1  0
 18 47  1  0
 20 48  1  0
 20 49  1  0
 21 50  1  0
 21 51  1  0
 22 52  1  0
 23 53  1  0
 23 54  1  0
 23 55  1  0
 24 56  1  0
 24 57  1  0
 24 58  1  0
 28 59  1  0
 29 60  1  0
 32 61  1  0
M  CHG  1  22   1
M  END
$$$$
