
     RDKit          3D

 40 44  0  0  0  0  0  0  0  0999 V2000
   -8.4149    2.0893  -24.5964 C   0  0  0  0  0  0  0  0  0  0  0  0
   -7.7290    0.7368  -24.7816 C   0  0  0  0  0  0  0  0  0  0  0  0
   -6.5442    0.6422  -25.0645 O   0  0  0  0  0  0  0  0  0  0  0  0
   -8.4907   -0.3868  -24.6269 N   0  0  0  0  0  0  0  0  0  0  0  0
   -7.8657   -1.7284  -24.5246 C   0  0  0  0  0  0  0  0  0  0  0  0
   -9.0131   -2.5348  -23.8844 C   0  0  2  0  0  0  0  0  0  0  0  0
  -10.2272   -1.8976  -24.5684 C   0  0  0  0  0  0  0  0  0  0  0  0
   -9.8628   -0.4844  -24.0676 C   0  0  1  0  0  0  0  0  0  0  0  0
   -9.7278   -0.7625  -22.6238 C   0  0  0  0  0  0  0  0  0  0  0  0
   -9.3615   -0.0116  -21.4569 C   0  0  0  0  0  0  0  0  0  0  0  0
   -9.7124    1.0635  -21.0249 O   0  0  0  0  0  1  0  0  0  0  0  0
   -8.4204   -0.8550  -20.8008 N   0  0  0  0  0  0  0  0  0  0  0  0
   -7.5139   -0.3254  -19.8417 C   0  0  0  0  0  0  0  0  0  0  0  0
   -7.8005   -0.5157  -18.5197 C   0  0  0  0  0  0  0  0  0  0  0  0
   -7.1198    0.0532  -17.4975 N   0  0  0  0  0  0  0  0  0  0  0  0
   -6.1246    0.8492  -17.8053 C   0  0  0  0  0  0  0  0  0  0  0  0
   -5.6880    1.1094  -19.1356 C   0  0  0  0  0  0  0  0  0  0  0  0
   -4.5960    1.9780  -19.4072 C   0  0  0  0  0  0  0  0  0  0  0  0
   -4.1859    2.1821  -20.6959 C   0  0  0  0  0  0  0  0  0  0  0  0
   -4.8424    1.5196  -21.7612 C   0  0  0  0  0  0  0  0  0  0  0  0
   -5.9088    0.6873  -21.5238 C   0  0  0  0  0  0  0  0  0  0  0  0
   -6.3837    0.4863  -20.1980 C   0  0  0  0  0  0  0  0  0  0  0  0
   -8.2891   -2.1010  -21.4409 C   0  0  0  0  0  0  0  0  0  0  0  0
   -7.5517   -3.0072  -21.1533 O   0  0  0  0  0  0  0  0  0  0  0  0
   -9.1948   -2.0230  -22.5038 N   0  0  0  0  0  0  0  0  0  0  0  0
   -8.8642    2.1947  -23.6011 H   0  0  0  0  0  0  0  0  0  0  0  0
   -7.6443    2.8519  -24.7310 H   0  0  0  0  0  0  0  0  0  0  0  0
   -9.2138    2.2519  -25.3307 H   0  0  0  0  0  0  0  0  0  0  0  0
   -7.5689   -2.0829  -25.5157 H   0  0  0  0  0  0  0  0  0  0  0  0
   -6.9931   -1.7025  -23.8669 H   0  0  0  0  0  0  0  0  0  0  0  0
   -8.9166   -3.6131  -23.9091 H   0  0  0  0  0  0  0  0  0  0  0  0
  -10.1895   -1.9731  -25.6582 H   0  0  0  0  0  0  0  0  0  0  0  0
  -11.1827   -2.2660  -24.1944 H   0  0  0  0  0  0  0  0  0  0  0  0
  -10.5113    0.3535  -24.3372 H   0  0  0  0  0  0  0  0  0  0  0  0
   -8.6149   -1.1819  -18.2506 H   0  0  0  0  0  0  0  0  0  0  0  0
   -5.6247    1.3365  -16.9694 H   0  0  0  0  0  0  0  0  0  0  0  0
   -4.1210    2.4843  -18.5683 H   0  0  0  0  0  0  0  0  0  0  0  0
   -3.3602    2.8573  -20.9073 H   0  0  0  0  0  0  0  0  0  0  0  0
   -4.5230    1.6830  -22.7860 H   0  0  0  0  0  0  0  0  0  0  0  0
   -6.3978    0.1817  -22.3536 H   0  0  0  0  0  0  0  0  0  0  0  0
  1  2  1  0
  2  3  2  0
  2  4  1  0
  4  5  1  0
  5  6  1  0
  6  7  1  0
  7  8  1  0
  8  9  1  0
  9 10  2  0
 10 11  1  0
 10 12  1  0
 12 13  1  0
 13 14  2  0
 14 15  1  0
 15 16  2  0
 16 17  1  0
 17 18  2  0
 18 19  1  0
 19 20  2  0
 20 21  1  0
 21 22  2  0
 12 23  1  0
 23 24  2  0
 23 25  1  0
  8  4  1  0
 25  9  1  0
 25  6  1  0
 22 13  1  0
 22 17  1  0
  1 26  1  0
  1 27  1  0
  1 28  1  0
  5 29  1  0
  5 30  1  0
  6 31  1  1
  7 32  1  0
  7 33  1  0
  8 34  1  1
 14 35  1  0
 16 36  1  0
 18 37  1  0
 19 38  1  0
 20 39  1  0
 21 40  1  0
M  CHG  1  11  -1
M  END
$$$$
