
     RDKit          3D

 61 66  0  0  0  0  0  0  0  0999 V2000
    9.3080   -4.7830   24.4398 C   0  0  0  0  0  0  0  0  0  0  0  0
    9.2683   -3.8758   23.3700 O   0  0  0  0  0  0  0  0  0  0  0  0
    9.4889   -2.5530   23.7876 C   0  0  0  0  0  0  0  0  0  0  0  0
    9.4090   -1.6479   22.5709 C   0  0  1  0  0  0  0  0  0  0  0  0
    8.0000   -1.5216   21.9640 C   0  0  0  0  0  0  0  0  0  0  0  0
    8.0983   -0.2648   21.2375 N   0  0  0  0  0  0  0  0  0  0  0  0
    7.2222    0.1614   20.2109 C   0  0  0  0  0  0  0  0  0  0  0  0
    7.5101   -0.1330   18.9026 C   0  0  0  0  0  0  0  0  0  0  0  0
    6.7444    0.2378   17.8458 N   0  0  0  0  0  0  0  0  0  0  0  0
    5.6638    0.9359   18.1049 C   0  0  0  0  0  0  0  0  0  0  0  0
    5.2520    1.3182   19.4144 C   0  0  0  0  0  0  0  0  0  0  0  0
    4.0882    2.1025   19.6356 C   0  0  0  0  0  0  0  0  0  0  0  0
    3.7209    2.4554   20.9059 C   0  0  0  0  0  0  0  0  0  0  0  0
    4.4978    2.0456   22.0115 C   0  0  0  0  0  0  0  0  0  0  0  0
    5.6345    1.2961   21.8226 C   0  0  0  0  0  0  0  0  0  0  0  0
    6.0438    0.9123   20.5128 C   0  0  0  0  0  0  0  0  0  0  0  0
    9.2200    0.4782   21.5519 C   0  0  0  0  0  0  0  0  0  0  0  0
    9.5977    1.4502   20.9374 O   0  0  0  0  0  0  0  0  0  0  0  0
    9.8695   -0.1798   22.7932 C   0  0  1  0  0  0  0  0  0  0  0  0
    9.2592    0.3868   24.1060 C   0  0  0  0  0  0  0  0  0  0  0  0
    9.7453    1.7182   24.4074 N   0  0  0  0  0  0  0  0  0  0  0  0
    8.8445    2.8346   24.6626 C   0  0  0  0  0  0  0  0  0  0  0  0
    8.8312    3.8478   23.5528 C   0  0  0  0  0  0  0  0  0  0  0  0
    7.8999    4.1757   22.6202 C   0  0  0  0  0  0  0  0  0  0  0  0
    8.3742    5.2765   21.9352 N   0  0  0  0  0  4  0  0  0  0  0  0
    9.5751    5.5921   22.4288 C   0  0  0  0  0  0  0  0  0  0  0  0
    9.8937    4.7173   23.3828 N   0  0  0  0  0  0  0  0  0  0  0  0
   11.0799    1.9878   24.4137 C   0  0  0  0  0  0  0  0  0  0  0  0
   11.5337    3.0092   24.9339 O   0  0  0  0  0  0  0  0  0  0  0  0
   11.9402    1.0338   23.6502 C   0  0  0  0  0  0  0  0  0  0  0  0
   13.3178    1.2617   23.6438 C   0  0  0  0  0  0  0  0  0  0  0  0
   14.1385    0.5827   22.7621 C   0  0  0  0  0  0  0  0  0  0  0  0
   13.5581   -0.3527   21.9023 C   0  0  0  0  0  0  0  0  0  0  0  0
   14.5636   -1.1710   20.7347 Cl  0  0  0  0  0  0  0  0  0  0  0  0
   12.1993   -0.6190   21.9234 C   0  0  0  0  0  0  0  0  0  0  0  0
   11.3638    0.0547   22.8256 C   0  0  0  0  0  0  0  0  0  0  0  0
    8.5449   -4.5474   25.1977 H   0  0  0  0  0  0  0  0  0  0  0  0
    9.1090   -5.7787   24.0353 H   0  0  0  0  0  0  0  0  0  0  0  0
   10.2918   -4.7839   24.9342 H   0  0  0  0  0  0  0  0  0  0  0  0
   10.4785   -2.4499   24.2669 H   0  0  0  0  0  0  0  0  0  0  0  0
    8.7291   -2.2589   24.5354 H   0  0  0  0  0  0  0  0  0  0  0  0
   10.0370   -2.0970   21.7955 H   0  0  0  0  0  0  0  0  0  0  0  0
    7.2220   -1.4910   22.7431 H   0  0  0  0  0  0  0  0  0  0  0  0
    7.7588   -2.3505   21.2946 H   0  0  0  0  0  0  0  0  0  0  0  0
    8.4104   -0.6960   18.6642 H   0  0  0  0  0  0  0  0  0  0  0  0
    5.0511    1.2436   17.2553 H   0  0  0  0  0  0  0  0  0  0  0  0
    3.5025    2.4170   18.7756 H   0  0  0  0  0  0  0  0  0  0  0  0
    2.8301    3.0550   21.0757 H   0  0  0  0  0  0  0  0  0  0  0  0
    4.2029    2.3415   23.0151 H   0  0  0  0  0  0  0  0  0  0  0  0
    6.2305    1.0013   22.6812 H   0  0  0  0  0  0  0  0  0  0  0  0
    8.1661    0.4202   24.0274 H   0  0  0  0  0  0  0  0  0  0  0  0
    9.5327   -0.2740   24.9389 H   0  0  0  0  0  0  0  0  0  0  0  0
    9.1704    3.3037   25.5975 H   0  0  0  0  0  0  0  0  0  0  0  0
    7.8438    2.4382   24.8424 H   0  0  0  0  0  0  0  0  0  0  0  0
    6.9594    3.7229   22.3426 H   0  0  0  0  0  0  0  0  0  0  0  0
    7.8625    5.7883   21.2267 H   0  0  0  0  0  0  0  0  0  0  0  0
   10.1938    6.3991   22.0791 H   0  0  0  0  0  0  0  0  0  0  0  0
   10.7625    4.6180   23.9079 H   0  0  0  0  0  0  0  0  0  0  0  0
   13.7201    2.0090   24.3210 H   0  0  0  0  0  0  0  0  0  0  0  0
   15.2029    0.7979   22.7100 H   0  0  0  0  0  0  0  0  0  0  0  0
   11.7998   -1.3317   21.2085 H   0  0  0  0  0  0  0  0  0  0  0  0
  1  2  1  0
  2  3  1  0
  3  4  1  0
  4  5  1  0
  5  6  1  0
  6  7  1  0
  7  8  2  0
  8  9  1  0
  9 10  2  0
 10 11  1  0
 11 12  2  0
 12 13  1  0
 13 14  2  0
 14 15  1  0
 15 16  2  0
  6 17  1  0
 17 18  2  0
 17 19  1  0
 19 20  1  1
 20 21  1  0
 21 22  1  0
 22 23  1  0
 23 24  2  0
 24 25  1  0
 25 26  2  0
 26 27  1  0
 21 28  1  0
 28 29  2  0
 28 30  1  0
 30 31  2  0
 31 32  1  0
 32 33  2  0
 33 34  1  0
 33 35  1  0
 35 36  2  0
 19  4  1  0
 27 23  1  0
 36 30  1  0
 16  7  1  0
 36 19  1  0
 16 11  1  0
  1 37  1  0
  1 38  1  0
  1 39  1  0
  3 40  1  0
  3 41  1  0
  4 42  1  6
  5 43  1  0
  5 44  1  0
  8 45  1  0
 10 46  1  0
 12 47  1  0
 13 48  1  0
 14 49  1  0
 15 50  1  0
 20 51  1  0
 20 52  1  0
 22 53  1  0
 22 54  1  0
 24 55  1  0
 25 56  1  0
 26 57  1  0
 27 58  1  0
 31 59  1  0
 32 60  1  0
 35 61  1  0
M  CHG  1  25   1
M  END
$$$$
