
     RDKit          3D

 60 64  0  0  0  0  0  0  0  0999 V2000
    7.1680    4.6503   22.5651 C   0  0  0  0  0  0  0  0  0  0  0  0
    7.9602    3.7105   23.3362 N   0  0  0  0  0  0  0  0  0  0  0  0
    7.6493    3.4516   24.6238 C   0  0  0  0  0  0  0  0  0  0  0  0
    6.7920    4.0708   25.2432 O   0  0  0  0  0  0  0  0  0  0  0  0
    8.4046    2.3114   25.3238 C   0  0  0  0  0  0  0  0  0  0  0  0
    9.2645    1.4898   24.5008 N   0  0  0  0  0  0  0  0  0  0  0  0
    8.8470    0.1310   24.2198 C   0  0  0  0  0  0  0  0  0  0  0  0
    9.4196   -0.3654   22.8732 C   0  0  2  0  0  0  0  0  0  0  0  0
    8.8107    0.4489   21.7057 C   0  0  0  0  0  0  0  0  0  0  0  0
    9.1490    1.5539   21.3207 O   0  0  0  0  0  0  0  0  0  0  0  0
    7.7804   -0.2803   21.1575 N   0  0  0  0  0  0  0  0  0  0  0  0
    6.9436    0.2555   20.1404 C   0  0  0  0  0  0  0  0  0  0  0  0
    7.2186   -0.0114   18.8251 C   0  0  0  0  0  0  0  0  0  0  0  0
    6.4908    0.4471   17.7732 N   0  0  0  0  0  0  0  0  0  0  0  0
    5.4522    1.2022   18.0471 C   0  0  0  0  0  0  0  0  0  0  0  0
    5.0449    1.5580   19.3664 C   0  0  0  0  0  0  0  0  0  0  0  0
    3.9135    2.3821   19.6133 C   0  0  0  0  0  0  0  0  0  0  0  0
    3.5412    2.6861   20.8945 C   0  0  0  0  0  0  0  0  0  0  0  0
    4.2791    2.1791   21.9875 C   0  0  0  0  0  0  0  0  0  0  0  0
    5.3832    1.3909   21.7730 C   0  0  0  0  0  0  0  0  0  0  0  0
    5.8053    1.0655   20.4545 C   0  0  0  0  0  0  0  0  0  0  0  0
    7.5573   -1.5563   21.8044 C   0  0  0  0  0  0  0  0  0  0  0  0
    8.8789   -1.7974   22.5522 C   0  0  2  0  0  0  0  0  0  0  0  0
    8.7161   -2.7235   23.6621 N   0  0  0  0  0  0  0  0  0  0  0  0
    9.8006   -3.4436   24.1109 C   0  0  0  0  0  0  0  0  0  0  0  0
    9.6258   -4.2130   25.4061 C   0  0  0  0  0  0  0  0  0  0  0  0
   10.8577   -3.4550   23.5071 O   0  0  0  0  0  0  0  0  0  0  0  0
   10.9248   -0.1726   22.9198 C   0  0  0  0  0  0  0  0  0  0  0  0
   11.8121   -1.0205   22.2519 C   0  0  0  0  0  0  0  0  0  0  0  0
   13.1643   -0.7338   22.2340 C   0  0  0  0  0  0  0  0  0  0  0  0
   14.2506   -1.8179   21.4091 Cl  0  0  0  0  0  0  0  0  0  0  0  0
   13.6840    0.3964   22.8639 C   0  0  0  0  0  0  0  0  0  0  0  0
   12.8129    1.2387   23.5239 C   0  0  0  0  0  0  0  0  0  0  0  0
   11.4492    0.9587   23.5626 C   0  0  0  0  0  0  0  0  0  0  0  0
   10.5501    1.9137   24.2918 C   0  0  0  0  0  0  0  0  0  0  0  0
   10.9229    3.0212   24.6560 O   0  0  0  0  0  0  0  0  0  0  0  0
    6.1258    4.3101   22.4952 H   0  0  0  0  0  0  0  0  0  0  0  0
    7.1789    5.6468   23.0218 H   0  0  0  0  0  0  0  0  0  0  0  0
    7.5952    4.7003   21.5589 H   0  0  0  0  0  0  0  0  0  0  0  0
    8.7322    3.2416   22.8810 H   0  0  0  0  0  0  0  0  0  0  0  0
    8.9881    2.7560   26.1372 H   0  0  0  0  0  0  0  0  0  0  0  0
    7.6316    1.6808   25.7750 H   0  0  0  0  0  0  0  0  0  0  0  0
    9.1782   -0.5521   25.0120 H   0  0  0  0  0  0  0  0  0  0  0  0
    7.7520    0.1159   24.1674 H   0  0  0  0  0  0  0  0  0  0  0  0
    8.0760   -0.6340   18.5763 H   0  0  0  0  0  0  0  0  0  0  0  0
    4.8815    1.5750   17.1956 H   0  0  0  0  0  0  0  0  0  0  0  0
    3.3631    2.7713   18.7608 H   0  0  0  0  0  0  0  0  0  0  0  0
    2.6890    3.3338   21.0838 H   0  0  0  0  0  0  0  0  0  0  0  0
    3.9925    2.4445   23.0029 H   0  0  0  0  0  0  0  0  0  0  0  0
    5.9462    1.0095   22.6190 H   0  0  0  0  0  0  0  0  0  0  0  0
    7.3268   -2.3335   21.0709 H   0  0  0  0  0  0  0  0  0  0  0  0
    6.7272   -1.5153   22.5290 H   0  0  0  0  0  0  0  0  0  0  0  0
    9.5967   -2.2598   21.8762 H   0  0  0  0  0  0  0  0  0  0  0  0
    7.9504   -2.5497   24.3049 H   0  0  0  0  0  0  0  0  0  0  0  0
   10.5875   -4.6674   25.6502 H   0  0  0  0  0  0  0  0  0  0  0  0
    9.3351   -3.5548   26.2301 H   0  0  0  0  0  0  0  0  0  0  0  0
    8.8732   -5.0052   25.3492 H   0  0  0  0  0  0  0  0  0  0  0  0
   11.4782   -1.9402   21.7955 H   0  0  0  0  0  0  0  0  0  0  0  0
   14.7457    0.6060   22.8245 H   0  0  0  0  0  0  0  0  0  0  0  0
   13.1504    2.1434   24.0144 H   0  0  0  0  0  0  0  0  0  0  0  0
  1  2  1  0
  2  3  1  0
  3  4  2  0
  3  5  1  0
  5  6  1  0
  6  7  1  0
  8  7  1  1
  8  9  1  0
  9 10  2  0
  9 11  1  0
 11 12  1  0
 12 13  2  0
 13 14  1  0
 14 15  2  0
 15 16  1  0
 16 17  2  0
 17 18  1  0
 18 19  2  0
 19 20  1  0
 20 21  2  0
 11 22  1  0
 22 23  1  0
 23 24  1  0
 24 25  1  0
 25 26  1  0
 25 27  2  0
  8 28  1  0
 28 29  2  0
 29 30  1  0
 30 31  1  0
 30 32  2  0
 32 33  1  0
 33 34  2  0
 34 35  1  0
 35 36  2  0
 35  6  1  0
 23  8  1  0
 34 28  1  0
 21 12  1  0
 21 16  1  0
  1 37  1  0
  1 38  1  0
  1 39  1  0
  2 40  1  0
  5 41  1  0
  5 42  1  0
  7 43  1  0
  7 44  1  0
 13 45  1  0
 15 46  1  0
 17 47  1  0
 18 48  1  0
 19 49  1  0
 20 50  1  0
 22 51  1  0
 22 52  1  0
 23 53  1  6
 24 54  1  0
 26 55  1  0
 26 56  1  0
 26 57  1  0
 29 58  1  0
 32 59  1  0
 33 60  1  0
M  END
$$$$
