
     RDKit          3D

 56 60  0  0  0  0  0  0  0  0999 V2000
    7.1709    4.6482   22.5725 C   0  0  0  0  0  0  0  0  0  0  0  0
    7.9517    3.7022   23.3379 N   0  0  0  0  0  0  0  0  0  0  0  0
    7.6468    3.4570   24.6298 C   0  0  0  0  0  0  0  0  0  0  0  0
    6.7950    4.0766   25.2509 O   0  0  0  0  0  0  0  0  0  0  0  0
    8.3947    2.3134   25.3240 C   0  0  0  0  0  0  0  0  0  0  0  0
    9.2534    1.4913   24.4967 N   0  0  0  0  0  0  0  0  0  0  0  0
    8.8466    0.1276   24.2116 C   0  0  0  0  0  0  0  0  0  0  0  0
    9.4274   -0.3696   22.8625 C   0  0  2  0  0  0  0  0  0  0  0  0
    8.8188    0.4583   21.7035 C   0  0  0  0  0  0  0  0  0  0  0  0
    9.1556    1.5645   21.3283 O   0  0  0  0  0  0  0  0  0  0  0  0
    7.7803   -0.2661   21.1576 N   0  0  0  0  0  0  0  0  0  0  0  0
    6.9435    0.2673   20.1404 C   0  0  0  0  0  0  0  0  0  0  0  0
    7.2127   -0.0133   18.8257 C   0  0  0  0  0  0  0  0  0  0  0  0
    6.4869    0.4434   17.7736 N   0  0  0  0  0  0  0  0  0  0  0  0
    5.4497    1.2046   18.0400 C   0  0  0  0  0  0  0  0  0  0  0  0
    5.0347    1.5545   19.3588 C   0  0  0  0  0  0  0  0  0  0  0  0
    3.9063    2.3859   19.6096 C   0  0  0  0  0  0  0  0  0  0  0  0
    3.5429    2.6896   20.8946 C   0  0  0  0  0  0  0  0  0  0  0  0
    4.2778    2.1776   21.9897 C   0  0  0  0  0  0  0  0  0  0  0  0
    5.3795    1.3873   21.7731 C   0  0  0  0  0  0  0  0  0  0  0  0
    5.7940    1.0622   20.4506 C   0  0  0  0  0  0  0  0  0  0  0  0
    7.5617   -1.5461   21.8056 C   0  0  0  0  0  0  0  0  0  0  0  0
    8.9097   -1.7878   22.5003 C   0  0  2  0  0  0  0  0  0  0  0  0
    8.8674   -2.7779   23.6537 C   0  0  0  0  0  0  0  0  0  0  0  0
    8.5232   -4.4438   23.1005 Cl  0  0  0  0  0  0  0  0  0  0  0  0
   10.9286   -0.1907   22.9303 C   0  0  0  0  0  0  0  0  0  0  0  0
   11.8229   -1.0536   22.2860 C   0  0  0  0  0  0  0  0  0  0  0  0
   13.1733   -0.7514   22.2552 C   0  0  0  0  0  0  0  0  0  0  0  0
   14.2506   -1.8165   21.3957 Cl  0  0  0  0  0  0  0  0  0  0  0  0
   13.6838    0.3945   22.8689 C   0  0  0  0  0  0  0  0  0  0  0  0
   12.8058    1.2410   23.5223 C   0  0  0  0  0  0  0  0  0  0  0  0
   11.4394    0.9563   23.5614 C   0  0  0  0  0  0  0  0  0  0  0  0
   10.5350    1.9177   24.2802 C   0  0  0  0  0  0  0  0  0  0  0  0
   10.9030    3.0293   24.6355 O   0  0  0  0  0  0  0  0  0  0  0  0
    7.1811    5.6458   23.0232 H   0  0  0  0  0  0  0  0  0  0  0  0
    7.5891    4.6985   21.5658 H   0  0  0  0  0  0  0  0  0  0  0  0
    6.1298    4.3158   22.4971 H   0  0  0  0  0  0  0  0  0  0  0  0
    8.7703    3.2945   22.9067 H   0  0  0  0  0  0  0  0  0  0  0  0
    7.6270    1.6741   25.7707 H   0  0  0  0  0  0  0  0  0  0  0  0
    8.9719    2.7375   26.1531 H   0  0  0  0  0  0  0  0  0  0  0  0
    9.1726   -0.5359   25.0264 H   0  0  0  0  0  0  0  0  0  0  0  0
    7.7525    0.1047   24.1685 H   0  0  0  0  0  0  0  0  0  0  0  0
    8.0698   -0.6319   18.5697 H   0  0  0  0  0  0  0  0  0  0  0  0
    4.8747    1.5820   17.1920 H   0  0  0  0  0  0  0  0  0  0  0  0
    3.3475    2.7836   18.7635 H   0  0  0  0  0  0  0  0  0  0  0  0
    2.6894    3.3342   21.0907 H   0  0  0  0  0  0  0  0  0  0  0  0
    3.9959    2.4393   23.0084 H   0  0  0  0  0  0  0  0  0  0  0  0
    5.9510    1.0034   22.6148 H   0  0  0  0  0  0  0  0  0  0  0  0
    6.7415   -1.5311   22.5446 H   0  0  0  0  0  0  0  0  0  0  0  0
    7.3280   -2.3173   21.0692 H   0  0  0  0  0  0  0  0  0  0  0  0
    9.5755   -2.2028   21.7442 H   0  0  0  0  0  0  0  0  0  0  0  0
    8.0862   -2.5213   24.3686 H   0  0  0  0  0  0  0  0  0  0  0  0
    9.8157   -2.8139   24.1947 H   0  0  0  0  0  0  0  0  0  0  0  0
   11.4767   -1.9628   21.8047 H   0  0  0  0  0  0  0  0  0  0  0  0
   14.7476    0.6119   22.8143 H   0  0  0  0  0  0  0  0  0  0  0  0
   13.1673    2.1400   24.0119 H   0  0  0  0  0  0  0  0  0  0  0  0
  1  2  1  0
  2  3  1  0
  3  4  2  0
  3  5  1  0
  5  6  1  0
  6  7  1  0
  8  7  1  1
  8  9  1  0
  9 10  2  0
  9 11  1  0
 11 12  1  0
 12 13  2  0
 13 14  1  0
 14 15  2  0
 15 16  1  0
 16 17  2  0
 17 18  1  0
 18 19  2  0
 19 20  1  0
 20 21  2  0
 11 22  1  0
 22 23  1  0
 23 24  1  0
 24 25  1  0
  8 26  1  0
 26 27  2  0
 27 28  1  0
 28 29  1  0
 28 30  2  0
 30 31  1  0
 31 32  2  0
 32 33  1  0
 33 34  2  0
 33  6  1  0
 23  8  1  0
 32 26  1  0
 21 12  1  0
 21 16  1  0
  1 35  1  0
  1 36  1  0
  1 37  1  0
  2 38  1  0
  5 39  1  0
  5 40  1  0
  7 41  1  0
  7 42  1  0
 13 43  1  0
 15 44  1  0
 17 45  1  0
 18 46  1  0
 19 47  1  0
 20 48  1  0
 22 49  1  0
 22 50  1  0
 23 51  1  6
 24 52  1  0
 24 53  1  0
 27 54  1  0
 30 55  1  0
 31 56  1  0
M  END
$$$$
