
     RDKit          3D

 67 72  0  0  0  0  0  0  0  0999 V2000
    7.1788    4.6167   22.5348 C   0  0  0  0  0  0  0  0  0  0  0  0
    7.9680    3.6531   23.2805 N   0  0  0  0  0  0  0  0  0  0  0  0
    7.6550    3.4189   24.5772 C   0  0  0  0  0  0  0  0  0  0  0  0
    6.8030    4.0541   25.1853 O   0  0  0  0  0  0  0  0  0  0  0  0
    8.4315    2.3238   25.3211 C   0  0  0  0  0  0  0  0  0  0  0  0
    9.2801    1.4729   24.5162 N   0  0  0  0  0  0  0  0  0  0  0  0
    8.8436    0.1207   24.2036 C   0  0  0  0  0  0  0  0  0  0  0  0
    9.4216   -0.3717   22.8474 C   0  0  2  0  0  0  0  0  0  0  0  0
    8.7840    0.4449   21.6959 C   0  0  0  0  0  0  0  0  0  0  0  0
    9.0827    1.5667   21.3292 O   0  0  0  0  0  0  0  0  0  0  0  0
    7.7617   -0.3006   21.1544 N   0  0  0  0  0  0  0  0  0  0  0  0
    6.9323    0.2366   20.1397 C   0  0  0  0  0  0  0  0  0  0  0  0
    7.2337   -0.0147   18.8256 C   0  0  0  0  0  0  0  0  0  0  0  0
    6.5234    0.4522   17.7678 N   0  0  0  0  0  0  0  0  0  0  0  0
    5.4812    1.2029   18.0436 C   0  0  0  0  0  0  0  0  0  0  0  0
    5.0668    1.5560   19.3604 C   0  0  0  0  0  0  0  0  0  0  0  0
    3.9345    2.3816   19.5931 C   0  0  0  0  0  0  0  0  0  0  0  0
    3.5564    2.6919   20.8697 C   0  0  0  0  0  0  0  0  0  0  0  0
    4.2858    2.1999   21.9759 C   0  0  0  0  0  0  0  0  0  0  0  0
    5.3896    1.4075   21.7773 C   0  0  0  0  0  0  0  0  0  0  0  0
    5.8105    1.0629   20.4586 C   0  0  0  0  0  0  0  0  0  0  0  0
    7.5567   -1.5751   21.8130 C   0  0  0  0  0  0  0  0  0  0  0  0
    8.9208   -1.7900   22.4788 C   0  0  2  0  0  0  0  0  0  0  0  0
    8.8991   -2.8249   23.6023 C   0  0  0  0  0  0  0  0  0  0  0  0
    8.6556   -4.1596   23.1087 N   0  0  0  0  0  0  0  0  0  0  0  0
    7.3811   -4.6280   22.9477 C   0  0  0  0  0  0  0  0  0  0  0  0
    6.2185   -4.1072   23.4434 C   0  0  0  0  0  0  0  0  0  0  0  0
    5.0820   -4.8340   23.2108 N   0  0  0  0  0  0  0  0  0  0  0  0
    5.3350   -5.9168   22.5475 C   0  0  0  0  0  0  0  0  0  0  0  0
    4.2524   -6.9012   22.2556 C   0  0  0  0  0  0  0  0  0  0  0  0
    7.0231   -6.1271   22.1208 S   0  0  0  0  0  0  0  0  0  0  0  0
   10.9253   -0.1857   22.9000 C   0  0  0  0  0  0  0  0  0  0  0  0
   11.8303   -1.0494   22.2668 C   0  0  0  0  0  0  0  0  0  0  0  0
   13.1802   -0.7464   22.2614 C   0  0  0  0  0  0  0  0  0  0  0  0
   14.2860   -1.8201   21.4577 Cl  0  0  0  0  0  0  0  0  0  0  0  0
   13.6881    0.4001   22.8685 C   0  0  0  0  0  0  0  0  0  0  0  0
   12.8080    1.2439   23.5091 C   0  0  0  0  0  0  0  0  0  0  0  0
   11.4477    0.9453   23.5462 C   0  0  0  0  0  0  0  0  0  0  0  0
   10.5746    1.8745   24.3261 C   0  0  0  0  0  0  0  0  0  0  0  0
   10.9963    2.9392   24.7629 O   0  0  0  0  0  0  0  0  0  0  0  0
    7.5991    4.7130   21.5298 H   0  0  0  0  0  0  0  0  0  0  0  0
    6.1371    4.2801   22.4532 H   0  0  0  0  0  0  0  0  0  0  0  0
    7.1885    5.6009   23.0175 H   0  0  0  0  0  0  0  0  0  0  0  0
    8.5331    2.9971   22.7510 H   0  0  0  0  0  0  0  0  0  0  0  0
    9.0431    2.8208   26.0841 H   0  0  0  0  0  0  0  0  0  0  0  0
    7.6884    1.7199   25.8521 H   0  0  0  0  0  0  0  0  0  0  0  0
    9.1676   -0.5648   24.9990 H   0  0  0  0  0  0  0  0  0  0  0  0
    7.7469    0.1173   24.1761 H   0  0  0  0  0  0  0  0  0  0  0  0
    8.1059   -0.6241   18.5968 H   0  0  0  0  0  0  0  0  0  0  0  0
    4.8929    1.5721   17.2039 H   0  0  0  0  0  0  0  0  0  0  0  0
    3.3781    2.7565   18.7371 H   0  0  0  0  0  0  0  0  0  0  0  0
    2.6870    3.3166   21.0485 H   0  0  0  0  0  0  0  0  0  0  0  0
    3.9813    2.4657   22.9869 H   0  0  0  0  0  0  0  0  0  0  0  0
    5.9412    1.0439   22.6409 H   0  0  0  0  0  0  0  0  0  0  0  0
    7.3131   -2.3708   21.1033 H   0  0  0  0  0  0  0  0  0  0  0  0
    6.7344   -1.5347   22.5493 H   0  0  0  0  0  0  0  0  0  0  0  0
    9.5664   -2.1543   21.6727 H   0  0  0  0  0  0  0  0  0  0  0  0
    9.8440   -2.8047   24.1570 H   0  0  0  0  0  0  0  0  0  0  0  0
    8.1011   -2.5839   24.3142 H   0  0  0  0  0  0  0  0  0  0  0  0
    9.4108   -4.6614   22.6645 H   0  0  0  0  0  0  0  0  0  0  0  0
    6.1482   -3.1982   24.0275 H   0  0  0  0  0  0  0  0  0  0  0  0
    4.1374   -7.6079   23.0895 H   0  0  0  0  0  0  0  0  0  0  0  0
    4.4272   -7.4468   21.3262 H   0  0  0  0  0  0  0  0  0  0  0  0
    3.3151   -6.3466   22.1960 H   0  0  0  0  0  0  0  0  0  0  0  0
   11.5167   -1.9664   21.7789 H   0  0  0  0  0  0  0  0  0  0  0  0
   14.7496    0.6167   22.8382 H   0  0  0  0  0  0  0  0  0  0  0  0
   13.1505    2.1473   24.0004 H   0  0  0  0  0  0  0  0  0  0  0  0
  1  2  1  0
  2  3  1  0
  3  4  2  0
  3  5  1  0
  5  6  1  0
  6  7  1  0
  8  7  1  1
  8  9  1  0
  9 10  2  0
  9 11  1  0
 11 12  1  0
 12 13  2  0
 13 14  1  0
 14 15  2  0
 15 16  1  0
 16 17  2  0
 17 18  1  0
 18 19  2  0
 19 20  1  0
 20 21  2  0
 11 22  1  0
 22 23  1  0
 23 24  1  0
 24 25  1  0
 25 26  1  0
 26 27  2  0
 27 28  1  0
 28 29  2  0
 29 30  1  0
 29 31  1  0
  8 32  1  0
 32 33  2  0
 33 34  1  0
 34 35  1  0
 34 36  2  0
 36 37  1  0
 37 38  2  0
 38 39  1  0
 39 40  2  0
 39  6  1  0
 23  8  1  0
 31 26  1  0
 38 32  1  0
 21 12  1  0
 21 16  1  0
  1 41  1  0
  1 42  1  0
  1 43  1  0
  2 44  1  0
  5 45  1  0
  5 46  1  0
  7 47  1  0
  7 48  1  0
 13 49  1  0
 15 50  1  0
 17 51  1  0
 18 52  1  0
 19 53  1  0
 20 54  1  0
 22 55  1  0
 22 56  1  0
 23 57  1  6
 24 58  1  0
 24 59  1  0
 25 60  1  0
 27 61  1  0
 30 62  1  0
 30 63  1  0
 30 64  1  0
 33 65  1  0
 36 66  1  0
 37 67  1  0
M  END
$$$$
