
     RDKit          3D

 55 60  0  0  0  0  0  0  0  0999 V2000
    8.8506   -2.7968   23.6491 C   0  0  0  0  0  0  0  0  0  0  0  0
    8.9105   -1.7950   22.5031 C   0  0  1  0  0  0  0  0  0  0  0  0
    7.5659   -1.5486   21.8059 C   0  0  0  0  0  0  0  0  0  0  0  0
    7.7742   -0.2672   21.1586 N   0  0  0  0  0  0  0  0  0  0  0  0
    6.9390    0.2644   20.1400 C   0  0  0  0  0  0  0  0  0  0  0  0
    7.2114   -0.0132   18.8255 C   0  0  0  0  0  0  0  0  0  0  0  0
    6.4864    0.4443   17.7734 N   0  0  0  0  0  0  0  0  0  0  0  0
    5.4495    1.2046   18.0403 C   0  0  0  0  0  0  0  0  0  0  0  0
    5.0330    1.5535   19.3581 C   0  0  0  0  0  0  0  0  0  0  0  0
    3.9055    2.3870   19.6105 C   0  0  0  0  0  0  0  0  0  0  0  0
    3.5437    2.6908   20.8940 C   0  0  0  0  0  0  0  0  0  0  0  0
    4.2773    2.1742   21.9876 C   0  0  0  0  0  0  0  0  0  0  0  0
    5.3766    1.3770   21.7730 C   0  0  0  0  0  0  0  0  0  0  0  0
    5.7881    1.0579   20.4505 C   0  0  0  0  0  0  0  0  0  0  0  0
    8.8197    0.4575   21.6963 C   0  0  0  0  0  0  0  0  0  0  0  0
    9.1584    1.5517   21.3042 O   0  0  0  0  0  0  0  0  0  0  0  0
    9.4267   -0.3751   22.8566 C   0  0  1  0  0  0  0  0  0  0  0  0
    8.8476    0.1184   24.2082 C   0  0  0  0  0  0  0  0  0  0  0  0
    9.2505    1.4815   24.4958 N   0  0  0  0  0  0  0  0  0  0  0  0
    8.3902    2.3126   25.3081 C   0  0  0  0  0  0  0  0  0  0  0  0
    7.8175    3.4912   24.5794 C   0  0  0  0  0  0  0  0  0  0  0  0
    7.6196    4.6756   25.0531 N   0  0  0  0  0  0  0  0  0  0  0  0
    7.0463    5.3667   23.9965 C   0  0  0  0  0  0  0  0  0  0  0  0
    6.9095    4.5461   22.9337 C   0  0  0  0  0  0  0  0  0  0  0  0
    7.4013    3.3217   23.3076 O   0  0  0  0  0  0  0  0  0  0  0  0
   10.5245    1.9213   24.2651 C   0  0  0  0  0  0  0  0  0  0  0  0
   10.8990    3.0252   24.6374 O   0  0  0  0  0  0  0  0  0  0  0  0
   11.4356    0.9605   23.5530 C   0  0  0  0  0  0  0  0  0  0  0  0
   12.8041    1.2417   23.5193 C   0  0  0  0  0  0  0  0  0  0  0  0
   13.6865    0.3954   22.8736 C   0  0  0  0  0  0  0  0  0  0  0  0
   13.1659   -0.7469   22.2717 C   0  0  0  0  0  0  0  0  0  0  0  0
   14.0026   -1.5783   21.6274 F   0  0  0  0  0  0  0  0  0  0  0  0
   11.8207   -1.0561   22.2886 C   0  0  0  0  0  0  0  0  0  0  0  0
   10.9268   -0.1907   22.9281 C   0  0  0  0  0  0  0  0  0  0  0  0
    8.5957   -3.8001   23.2932 H   0  0  0  0  0  0  0  0  0  0  0  0
    8.0978   -2.5081   24.3890 H   0  0  0  0  0  0  0  0  0  0  0  0
    9.8076   -2.8634   24.1773 H   0  0  0  0  0  0  0  0  0  0  0  0
    9.5730   -2.1985   21.7339 H   0  0  0  0  0  0  0  0  0  0  0  0
    6.7443   -1.5313   22.5437 H   0  0  0  0  0  0  0  0  0  0  0  0
    7.3283   -2.3175   21.0673 H   0  0  0  0  0  0  0  0  0  0  0  0
    8.0700   -0.6310   18.5697 H   0  0  0  0  0  0  0  0  0  0  0  0
    4.8746    1.5823   17.1919 H   0  0  0  0  0  0  0  0  0  0  0  0
    3.3472    2.7841   18.7642 H   0  0  0  0  0  0  0  0  0  0  0  0
    2.6864    3.3328   21.0864 H   0  0  0  0  0  0  0  0  0  0  0  0
    3.9834    2.4259   23.0032 H   0  0  0  0  0  0  0  0  0  0  0  0
    5.9519    0.9886   22.6108 H   0  0  0  0  0  0  0  0  0  0  0  0
    7.7529    0.0991   24.1646 H   0  0  0  0  0  0  0  0  0  0  0  0
    9.1757   -0.5473   25.0217 H   0  0  0  0  0  0  0  0  0  0  0  0
    8.9330    2.7010   26.1721 H   0  0  0  0  0  0  0  0  0  0  0  0
    7.5731    1.6922   25.6972 H   0  0  0  0  0  0  0  0  0  0  0  0
    6.7749    6.4067   24.0849 H   0  0  0  0  0  0  0  0  0  0  0  0
    6.5220    4.6562   21.9290 H   0  0  0  0  0  0  0  0  0  0  0  0
   13.1697    2.1371   24.0087 H   0  0  0  0  0  0  0  0  0  0  0  0
   14.7537    0.5995   22.8129 H   0  0  0  0  0  0  0  0  0  0  0  0
   11.4897   -1.9692   21.8040 H   0  0  0  0  0  0  0  0  0  0  0  0
  1  2  1  0
  2  3  1  0
  3  4  1  0
  4  5  1  0
  5  6  2  0
  6  7  1  0
  7  8  2  0
  8  9  1  0
  9 10  2  0
 10 11  1  0
 11 12  2  0
 12 13  1  0
 13 14  2  0
  4 15  1  0
 15 16  2  0
 15 17  1  0
 17 18  1  1
 18 19  1  0
 19 20  1  0
 20 21  1  0
 21 22  2  0
 22 23  1  0
 23 24  2  0
 24 25  1  0
 19 26  1  0
 26 27  2  0
 26 28  1  0
 28 29  2  0
 29 30  1  0
 30 31  2  0
 31 32  1  0
 31 33  1  0
 33 34  2  0
 17  2  1  0
 25 21  1  0
 34 28  1  0
 14  5  1  0
 34 17  1  0
 14  9  1  0
  1 35  1  0
  1 36  1  0
  1 37  1  0
  2 38  1  6
  3 39  1  0
  3 40  1  0
  6 41  1  0
  8 42  1  0
 10 43  1  0
 11 44  1  0
 12 45  1  0
 13 46  1  0
 18 47  1  0
 18 48  1  0
 20 49  1  0
 20 50  1  0
 23 51  1  0
 24 52  1  0
 29 53  1  0
 30 54  1  0
 33 55  1  0
M  END
$$$$
