
     RDKit          3D

 55 60  0  0  0  0  0  0  0  0999 V2000
    8.8511   -2.7957   23.6494 C   0  0  0  0  0  0  0  0  0  0  0  0
    8.9094   -1.7965   22.5041 C   0  0  1  0  0  0  0  0  0  0  0  0
    7.5681   -1.5459   21.8064 C   0  0  0  0  0  0  0  0  0  0  0  0
    7.7790   -0.2650   21.1578 N   0  0  0  0  0  0  0  0  0  0  0  0
    6.9419    0.2653   20.1422 C   0  0  0  0  0  0  0  0  0  0  0  0
    7.2105   -0.0145   18.8263 C   0  0  0  0  0  0  0  0  0  0  0  0
    6.4867    0.4439   17.7747 N   0  0  0  0  0  0  0  0  0  0  0  0
    5.4484    1.2057   18.0395 C   0  0  0  0  0  0  0  0  0  0  0  0
    5.0342    1.5519   19.3590 C   0  0  0  0  0  0  0  0  0  0  0  0
    3.9062    2.3859   19.6094 C   0  0  0  0  0  0  0  0  0  0  0  0
    3.5438    2.6916   20.8941 C   0  0  0  0  0  0  0  0  0  0  0  0
    4.2765    2.1734   21.9877 C   0  0  0  0  0  0  0  0  0  0  0  0
    5.3789    1.3842   21.7742 C   0  0  0  0  0  0  0  0  0  0  0  0
    5.7894    1.0585   20.4516 C   0  0  0  0  0  0  0  0  0  0  0  0
    8.8184    0.4604   21.7016 C   0  0  0  0  0  0  0  0  0  0  0  0
    9.1532    1.5614   21.3237 O   0  0  0  0  0  0  0  0  0  0  0  0
    9.4266   -0.3748   22.8599 C   0  0  1  0  0  0  0  0  0  0  0  0
    8.8487    0.1261   24.2107 C   0  0  0  0  0  0  0  0  0  0  0  0
    9.2665    1.4811   24.5238 N   0  0  0  0  0  0  0  0  0  0  0  0
    8.3752    2.3002   25.3225 C   0  0  0  0  0  0  0  0  0  0  0  0
    7.5508    3.2396   24.5077 C   0  0  0  0  0  0  0  0  0  0  0  0
    7.9558    3.9221   23.4170 C   0  0  0  0  0  0  0  0  0  0  0  0
    6.9186    4.7132   23.0170 O   0  0  0  0  0  0  0  0  0  0  0  0
    5.9346    4.4470   23.8963 C   0  0  0  0  0  0  0  0  0  0  0  0
    6.2350    3.5722   24.7991 N   0  0  0  0  0  0  0  0  0  0  0  0
   10.5341    1.9274   24.2738 C   0  0  0  0  0  0  0  0  0  0  0  0
   10.9119    3.0396   24.6206 O   0  0  0  0  0  0  0  0  0  0  0  0
   11.4395    0.9594   23.5562 C   0  0  0  0  0  0  0  0  0  0  0  0
   12.8081    1.2404   23.5190 C   0  0  0  0  0  0  0  0  0  0  0  0
   13.6869    0.3940   22.8715 C   0  0  0  0  0  0  0  0  0  0  0  0
   13.1653   -0.7463   22.2717 C   0  0  0  0  0  0  0  0  0  0  0  0
   13.9990   -1.5784   21.6271 F   0  0  0  0  0  0  0  0  0  0  0  0
   11.8200   -1.0563   22.2878 C   0  0  0  0  0  0  0  0  0  0  0  0
   10.9282   -0.1902   22.9283 C   0  0  0  0  0  0  0  0  0  0  0  0
    8.0985   -2.5082   24.3872 H   0  0  0  0  0  0  0  0  0  0  0  0
    8.5959   -3.7974   23.2939 H   0  0  0  0  0  0  0  0  0  0  0  0
    9.8066   -2.8639   24.1787 H   0  0  0  0  0  0  0  0  0  0  0  0
    9.5687   -2.2057   21.7345 H   0  0  0  0  0  0  0  0  0  0  0  0
    7.3345   -2.3160   21.0688 H   0  0  0  0  0  0  0  0  0  0  0  0
    6.7481   -1.5311   22.5450 H   0  0  0  0  0  0  0  0  0  0  0  0
    8.0691   -0.6311   18.5690 H   0  0  0  0  0  0  0  0  0  0  0  0
    4.8714    1.5845   17.1926 H   0  0  0  0  0  0  0  0  0  0  0  0
    3.3445    2.7850   18.7671 H   0  0  0  0  0  0  0  0  0  0  0  0
    2.6866    3.3328   21.0864 H   0  0  0  0  0  0  0  0  0  0  0  0
    3.9826    2.4153   23.0063 H   0  0  0  0  0  0  0  0  0  0  0  0
    5.9511    0.9957   22.6124 H   0  0  0  0  0  0  0  0  0  0  0  0
    9.1736   -0.5385   25.0229 H   0  0  0  0  0  0  0  0  0  0  0  0
    7.7544    0.1088   24.1727 H   0  0  0  0  0  0  0  0  0  0  0  0
    8.9814    2.8675   26.0359 H   0  0  0  0  0  0  0  0  0  0  0  0
    7.7103    1.6482   25.8944 H   0  0  0  0  0  0  0  0  0  0  0  0
    8.8800    3.9717   22.8619 H   0  0  0  0  0  0  0  0  0  0  0  0
    4.9906    4.9652   23.7641 H   0  0  0  0  0  0  0  0  0  0  0  0
   13.1741    2.1347   24.0089 H   0  0  0  0  0  0  0  0  0  0  0  0
   14.7534    0.5997   22.8123 H   0  0  0  0  0  0  0  0  0  0  0  0
   11.4906   -1.9699   21.8038 H   0  0  0  0  0  0  0  0  0  0  0  0
  1  2  1  0
  2  3  1  0
  3  4  1  0
  4  5  1  0
  5  6  2  0
  6  7  1  0
  7  8  2  0
  8  9  1  0
  9 10  2  0
 10 11  1  0
 11 12  2  0
 12 13  1  0
 13 14  2  0
  4 15  1  0
 15 16  2  0
 15 17  1  0
 17 18  1  1
 18 19  1  0
 19 20  1  0
 20 21  1  0
 21 22  2  0
 22 23  1  0
 23 24  1  0
 24 25  2  0
 19 26  1  0
 26 27  2  0
 26 28  1  0
 28 29  2  0
 29 30  1  0
 30 31  2  0
 31 32  1  0
 31 33  1  0
 33 34  2  0
 17  2  1  0
 25 21  1  0
 34 28  1  0
 14  5  1  0
 34 17  1  0
 14  9  1  0
  1 35  1  0
  1 36  1  0
  1 37  1  0
  2 38  1  6
  3 39  1  0
  3 40  1  0
  6 41  1  0
  8 42  1  0
 10 43  1  0
 11 44  1  0
 12 45  1  0
 13 46  1  0
 18 47  1  0
 18 48  1  0
 20 49  1  0
 20 50  1  0
 22 51  1  0
 24 52  1  0
 29 53  1  0
 30 54  1  0
 33 55  1  0
M  END
$$$$
